
No compatibility mode selected!


Circuit: **.subckt basic_boost

