
Compatibility modes selected: hs a

Warning: m=xx on .subckt line will override multiplier m hierarchy!


Circuit: **.subckt basic_boost

option SCALE: Scale is set to 1e-06 for instance and model parameters
binary raw file "./Basic_Boost.raw"
Doing analysis at TEMP = 27.000000 and TNOM = 27.000000

Warning: v3: no DC value, transient time 0 value used
Warning: v2: no DC value, transient time 0 value used
Warning: v1: no DC value, transient time 0 value used
No. of Data Columns : 5613  

Initial Transient Solution
--------------------------

Node                                   Voltage
----                                   -------
vout                                  0.927059
vin                                          1
net1                                         1
ndrive                                       0
pdrive                                       0
l1#branch                              0.15451
v3#branch                                    0
v2#branch                                    0
v1#branch                             -0.15451

Warning: unrecognized variable - @m.x1.xm1.msky130_fd_pr__nfet_01v8[is]
Warning: unrecognized variable - @m.x1.xm1.msky130_fd_pr__nfet_01v8[ig]
Warning: unrecognized variable - @m.x1.xm1.msky130_fd_pr__nfet_01v8[ib]
Warning: unrecognized variable - @m.x1.xm2.msky130_fd_pr__nfet_01v8[is]
Warning: unrecognized variable - @m.x1.xm2.msky130_fd_pr__nfet_01v8[ig]
Warning: unrecognized variable - @m.x1.xm2.msky130_fd_pr__nfet_01v8[ib]
Warning: unrecognized variable - @m.x1.xm3.msky130_fd_pr__nfet_01v8[is]
Warning: unrecognized variable - @m.x1.xm3.msky130_fd_pr__nfet_01v8[ig]
Warning: unrecognized variable - @m.x1.xm3.msky130_fd_pr__nfet_01v8[ib]
Warning: unrecognized variable - @m.x1.xm4.msky130_fd_pr__nfet_01v8[is]
Warning: unrecognized variable - @m.x1.xm4.msky130_fd_pr__nfet_01v8[ig]
Warning: unrecognized variable - @m.x1.xm4.msky130_fd_pr__nfet_01v8[ib]
Warning: unrecognized variable - @m.x1.xm5.msky130_fd_pr__nfet_01v8[is]
Warning: unrecognized variable - @m.x1.xm5.msky130_fd_pr__nfet_01v8[ig]
Warning: unrecognized variable - @m.x1.xm5.msky130_fd_pr__nfet_01v8[ib]
Warning: unrecognized variable - @m.x1.xm6.msky130_fd_pr__nfet_01v8[is]
Warning: unrecognized variable - @m.x1.xm6.msky130_fd_pr__nfet_01v8[ig]
Warning: unrecognized variable - @m.x1.xm6.msky130_fd_pr__nfet_01v8[ib]
Warning: unrecognized variable - @m.x1.xm7.msky130_fd_pr__nfet_01v8[is]
Warning: unrecognized variable - @m.x1.xm7.msky130_fd_pr__nfet_01v8[ig]
Warning: unrecognized variable - @m.x1.xm7.msky130_fd_pr__nfet_01v8[ib]
Warning: unrecognized variable - @m.x1.xm8.msky130_fd_pr__nfet_01v8[is]
Warning: unrecognized variable - @m.x1.xm8.msky130_fd_pr__nfet_01v8[ig]
Warning: unrecognized variable - @m.x1.xm8.msky130_fd_pr__nfet_01v8[ib]
Warning: unrecognized variable - @m.x1.xm9.msky130_fd_pr__nfet_01v8[is]
Warning: unrecognized variable - @m.x1.xm9.msky130_fd_pr__nfet_01v8[ig]
Warning: unrecognized variable - @m.x1.xm9.msky130_fd_pr__nfet_01v8[ib]
Warning: unrecognized variable - @m.x1.xm10.msky130_fd_pr__nfet_01v8[is]
Warning: unrecognized variable - @m.x1.xm10.msky130_fd_pr__nfet_01v8[ig]
Warning: unrecognized variable - @m.x1.xm10.msky130_fd_pr__nfet_01v8[ib]
Warning: unrecognized variable - @m.x1.xm11.msky130_fd_pr__nfet_01v8[is]
Warning: unrecognized variable - @m.x1.xm11.msky130_fd_pr__nfet_01v8[ig]
Warning: unrecognized variable - @m.x1.xm11.msky130_fd_pr__nfet_01v8[ib]
Warning: unrecognized variable - @m.x1.xm12.msky130_fd_pr__nfet_01v8[is]
Warning: unrecognized variable - @m.x1.xm12.msky130_fd_pr__nfet_01v8[ig]
Warning: unrecognized variable - @m.x1.xm12.msky130_fd_pr__nfet_01v8[ib]
Warning: unrecognized variable - @m.x1.xm13.msky130_fd_pr__nfet_01v8[is]
Warning: unrecognized variable - @m.x1.xm13.msky130_fd_pr__nfet_01v8[ig]
Warning: unrecognized variable - @m.x1.xm13.msky130_fd_pr__nfet_01v8[ib]
Warning: unrecognized variable - @m.x1.xm14.msky130_fd_pr__nfet_01v8[is]
Warning: unrecognized variable - @m.x1.xm14.msky130_fd_pr__nfet_01v8[ig]
Warning: unrecognized variable - @m.x1.xm14.msky130_fd_pr__nfet_01v8[ib]
Warning: unrecognized variable - @m.x1.xm15.msky130_fd_pr__nfet_01v8[is]
Warning: unrecognized variable - @m.x1.xm15.msky130_fd_pr__nfet_01v8[ig]
Warning: unrecognized variable - @m.x1.xm15.msky130_fd_pr__nfet_01v8[ib]
Warning: unrecognized variable - @m.x1.xm16.msky130_fd_pr__nfet_01v8[is]
Warning: unrecognized variable - @m.x1.xm16.msky130_fd_pr__nfet_01v8[ig]
Warning: unrecognized variable - @m.x1.xm16.msky130_fd_pr__nfet_01v8[ib]
Warning: unrecognized variable - @m.x1.xm17.msky130_fd_pr__nfet_01v8[is]
Warning: unrecognized variable - @m.x1.xm17.msky130_fd_pr__nfet_01v8[ig]
Warning: unrecognized variable - @m.x1.xm17.msky130_fd_pr__nfet_01v8[ib]
Warning: unrecognized variable - @m.x1.xm18.msky130_fd_pr__nfet_01v8[is]
Warning: unrecognized variable - @m.x1.xm18.msky130_fd_pr__nfet_01v8[ig]
Warning: unrecognized variable - @m.x1.xm18.msky130_fd_pr__nfet_01v8[ib]
Warning: unrecognized variable - @m.x1.xm19.msky130_fd_pr__nfet_01v8[is]
Warning: unrecognized variable - @m.x1.xm19.msky130_fd_pr__nfet_01v8[ig]
Warning: unrecognized variable - @m.x1.xm19.msky130_fd_pr__nfet_01v8[ib]
Warning: unrecognized variable - @m.x1.xm20.msky130_fd_pr__nfet_01v8[is]
Warning: unrecognized variable - @m.x1.xm20.msky130_fd_pr__nfet_01v8[ig]
Warning: unrecognized variable - @m.x1.xm20.msky130_fd_pr__nfet_01v8[ib]
Warning: unrecognized variable - @m.x1.xm21.msky130_fd_pr__nfet_01v8[is]
Warning: unrecognized variable - @m.x1.xm21.msky130_fd_pr__nfet_01v8[ig]
Warning: unrecognized variable - @m.x1.xm21.msky130_fd_pr__nfet_01v8[ib]
Warning: unrecognized variable - @m.x1.xm22.msky130_fd_pr__nfet_01v8[is]
Warning: unrecognized variable - @m.x1.xm22.msky130_fd_pr__nfet_01v8[ig]
Warning: unrecognized variable - @m.x1.xm22.msky130_fd_pr__nfet_01v8[ib]
Warning: unrecognized variable - @m.x1.xm23.msky130_fd_pr__nfet_01v8[is]
Warning: unrecognized variable - @m.x1.xm23.msky130_fd_pr__nfet_01v8[ig]
Warning: unrecognized variable - @m.x1.xm23.msky130_fd_pr__nfet_01v8[ib]
Warning: unrecognized variable - @m.x1.xm24.msky130_fd_pr__nfet_01v8[is]
Warning: unrecognized variable - @m.x1.xm24.msky130_fd_pr__nfet_01v8[ig]
Warning: unrecognized variable - @m.x1.xm24.msky130_fd_pr__nfet_01v8[ib]
Warning: unrecognized variable - @m.x1.xm25.msky130_fd_pr__nfet_01v8[is]
Warning: unrecognized variable - @m.x1.xm25.msky130_fd_pr__nfet_01v8[ig]
Warning: unrecognized variable - @m.x1.xm25.msky130_fd_pr__nfet_01v8[ib]
Warning: unrecognized variable - @m.x1.xm26.msky130_fd_pr__nfet_01v8[is]
Warning: unrecognized variable - @m.x1.xm26.msky130_fd_pr__nfet_01v8[ig]
Warning: unrecognized variable - @m.x1.xm26.msky130_fd_pr__nfet_01v8[ib]
Warning: unrecognized variable - @m.x1.xm27.msky130_fd_pr__nfet_01v8[is]
Warning: unrecognized variable - @m.x1.xm27.msky130_fd_pr__nfet_01v8[ig]
Warning: unrecognized variable - @m.x1.xm27.msky130_fd_pr__nfet_01v8[ib]
Warning: unrecognized variable - @m.x1.xm28.msky130_fd_pr__nfet_01v8[is]
Warning: unrecognized variable - @m.x1.xm28.msky130_fd_pr__nfet_01v8[ig]
Warning: unrecognized variable - @m.x1.xm28.msky130_fd_pr__nfet_01v8[ib]
Warning: unrecognized variable - @m.x1.xm29.msky130_fd_pr__nfet_01v8[is]
Warning: unrecognized variable - @m.x1.xm29.msky130_fd_pr__nfet_01v8[ig]
Warning: unrecognized variable - @m.x1.xm29.msky130_fd_pr__nfet_01v8[ib]
Warning: unrecognized variable - @m.x1.xm30.msky130_fd_pr__nfet_01v8[is]
Warning: unrecognized variable - @m.x1.xm30.msky130_fd_pr__nfet_01v8[ig]
Warning: unrecognized variable - @m.x1.xm30.msky130_fd_pr__nfet_01v8[ib]
Warning: unrecognized variable - @m.x1.xm31.msky130_fd_pr__nfet_01v8[is]
Warning: unrecognized variable - @m.x1.xm31.msky130_fd_pr__nfet_01v8[ig]
Warning: unrecognized variable - @m.x1.xm31.msky130_fd_pr__nfet_01v8[ib]
Warning: unrecognized variable - @m.x1.xm32.msky130_fd_pr__nfet_01v8[is]
Warning: unrecognized variable - @m.x1.xm32.msky130_fd_pr__nfet_01v8[ig]
Warning: unrecognized variable - @m.x1.xm32.msky130_fd_pr__nfet_01v8[ib]
Warning: unrecognized variable - @m.x1.xm33.msky130_fd_pr__nfet_01v8[is]
Warning: unrecognized variable - @m.x1.xm33.msky130_fd_pr__nfet_01v8[ig]
Warning: unrecognized variable - @m.x1.xm33.msky130_fd_pr__nfet_01v8[ib]
Warning: unrecognized variable - @m.x1.xm34.msky130_fd_pr__nfet_01v8[is]
Warning: unrecognized variable - @m.x1.xm34.msky130_fd_pr__nfet_01v8[ig]
Warning: unrecognized variable - @m.x1.xm34.msky130_fd_pr__nfet_01v8[ib]
Warning: unrecognized variable - @m.x1.xm35.msky130_fd_pr__nfet_01v8[is]
Warning: unrecognized variable - @m.x1.xm35.msky130_fd_pr__nfet_01v8[ig]
Warning: unrecognized variable - @m.x1.xm35.msky130_fd_pr__nfet_01v8[ib]
Warning: unrecognized variable - @m.x1.xm36.msky130_fd_pr__nfet_01v8[is]
Warning: unrecognized variable - @m.x1.xm36.msky130_fd_pr__nfet_01v8[ig]
Warning: unrecognized variable - @m.x1.xm36.msky130_fd_pr__nfet_01v8[ib]
Warning: unrecognized variable - @m.x1.xm37.msky130_fd_pr__nfet_01v8[is]
Warning: unrecognized variable - @m.x1.xm37.msky130_fd_pr__nfet_01v8[ig]
Warning: unrecognized variable - @m.x1.xm37.msky130_fd_pr__nfet_01v8[ib]
Warning: unrecognized variable - @m.x1.xm38.msky130_fd_pr__nfet_01v8[is]
Warning: unrecognized variable - @m.x1.xm38.msky130_fd_pr__nfet_01v8[ig]
Warning: unrecognized variable - @m.x1.xm38.msky130_fd_pr__nfet_01v8[ib]
Warning: unrecognized variable - @m.x1.xm39.msky130_fd_pr__nfet_01v8[is]
Warning: unrecognized variable - @m.x1.xm39.msky130_fd_pr__nfet_01v8[ig]
Warning: unrecognized variable - @m.x1.xm39.msky130_fd_pr__nfet_01v8[ib]
Warning: unrecognized variable - @m.x1.xm40.msky130_fd_pr__nfet_01v8[is]
Warning: unrecognized variable - @m.x1.xm40.msky130_fd_pr__nfet_01v8[ig]
Warning: unrecognized variable - @m.x1.xm40.msky130_fd_pr__nfet_01v8[ib]
Warning: unrecognized variable - @m.x1.xm41.msky130_fd_pr__nfet_01v8[is]
Warning: unrecognized variable - @m.x1.xm41.msky130_fd_pr__nfet_01v8[ig]
Warning: unrecognized variable - @m.x1.xm41.msky130_fd_pr__nfet_01v8[ib]
Warning: unrecognized variable - @m.x1.xm42.msky130_fd_pr__nfet_01v8[is]
Warning: unrecognized variable - @m.x1.xm42.msky130_fd_pr__nfet_01v8[ig]
Warning: unrecognized variable - @m.x1.xm42.msky130_fd_pr__nfet_01v8[ib]
Warning: unrecognized variable - @m.x1.xm43.msky130_fd_pr__nfet_01v8[is]
Warning: unrecognized variable - @m.x1.xm43.msky130_fd_pr__nfet_01v8[ig]
Warning: unrecognized variable - @m.x1.xm43.msky130_fd_pr__nfet_01v8[ib]
Warning: unrecognized variable - @m.x1.xm44.msky130_fd_pr__nfet_01v8[is]
Warning: unrecognized variable - @m.x1.xm44.msky130_fd_pr__nfet_01v8[ig]
Warning: unrecognized variable - @m.x1.xm44.msky130_fd_pr__nfet_01v8[ib]
Warning: unrecognized variable - @m.x1.xm45.msky130_fd_pr__nfet_01v8[is]
Warning: unrecognized variable - @m.x1.xm45.msky130_fd_pr__nfet_01v8[ig]
Warning: unrecognized variable - @m.x1.xm45.msky130_fd_pr__nfet_01v8[ib]
Warning: unrecognized variable - @m.x1.xm46.msky130_fd_pr__nfet_01v8[is]
Warning: unrecognized variable - @m.x1.xm46.msky130_fd_pr__nfet_01v8[ig]
Warning: unrecognized variable - @m.x1.xm46.msky130_fd_pr__nfet_01v8[ib]
Warning: unrecognized variable - @m.x1.xm47.msky130_fd_pr__nfet_01v8[is]
Warning: unrecognized variable - @m.x1.xm47.msky130_fd_pr__nfet_01v8[ig]
Warning: unrecognized variable - @m.x1.xm47.msky130_fd_pr__nfet_01v8[ib]
Warning: unrecognized variable - @m.x1.xm48.msky130_fd_pr__nfet_01v8[is]
Warning: unrecognized variable - @m.x1.xm48.msky130_fd_pr__nfet_01v8[ig]
Warning: unrecognized variable - @m.x1.xm48.msky130_fd_pr__nfet_01v8[ib]
Warning: unrecognized variable - @m.x1.xm49.msky130_fd_pr__nfet_01v8[is]
Warning: unrecognized variable - @m.x1.xm49.msky130_fd_pr__nfet_01v8[ig]
Warning: unrecognized variable - @m.x1.xm49.msky130_fd_pr__nfet_01v8[ib]
Warning: unrecognized variable - @m.x1.xm50.msky130_fd_pr__nfet_01v8[is]
Warning: unrecognized variable - @m.x1.xm50.msky130_fd_pr__nfet_01v8[ig]
Warning: unrecognized variable - @m.x1.xm50.msky130_fd_pr__nfet_01v8[ib]
Warning: unrecognized variable - @m.x1.xm51.msky130_fd_pr__nfet_01v8[is]
Warning: unrecognized variable - @m.x1.xm51.msky130_fd_pr__nfet_01v8[ig]
Warning: unrecognized variable - @m.x1.xm51.msky130_fd_pr__nfet_01v8[ib]
Warning: unrecognized variable - @m.x1.xm52.msky130_fd_pr__nfet_01v8[is]
Warning: unrecognized variable - @m.x1.xm52.msky130_fd_pr__nfet_01v8[ig]
Warning: unrecognized variable - @m.x1.xm52.msky130_fd_pr__nfet_01v8[ib]
Warning: unrecognized variable - @m.x1.xm53.msky130_fd_pr__nfet_01v8[is]
Warning: unrecognized variable - @m.x1.xm53.msky130_fd_pr__nfet_01v8[ig]
Warning: unrecognized variable - @m.x1.xm53.msky130_fd_pr__nfet_01v8[ib]
Warning: unrecognized variable - @m.x1.xm54.msky130_fd_pr__nfet_01v8[is]
Warning: unrecognized variable - @m.x1.xm54.msky130_fd_pr__nfet_01v8[ig]
Warning: unrecognized variable - @m.x1.xm54.msky130_fd_pr__nfet_01v8[ib]
Warning: unrecognized variable - @m.x1.xm55.msky130_fd_pr__nfet_01v8[is]
Warning: unrecognized variable - @m.x1.xm55.msky130_fd_pr__nfet_01v8[ig]
Warning: unrecognized variable - @m.x1.xm55.msky130_fd_pr__nfet_01v8[ib]
Warning: unrecognized variable - @m.x1.xm56.msky130_fd_pr__nfet_01v8[is]
Warning: unrecognized variable - @m.x1.xm56.msky130_fd_pr__nfet_01v8[ig]
Warning: unrecognized variable - @m.x1.xm56.msky130_fd_pr__nfet_01v8[ib]
Warning: unrecognized variable - @m.x1.xm57.msky130_fd_pr__nfet_01v8[is]
Warning: unrecognized variable - @m.x1.xm57.msky130_fd_pr__nfet_01v8[ig]
Warning: unrecognized variable - @m.x1.xm57.msky130_fd_pr__nfet_01v8[ib]
Warning: unrecognized variable - @m.x1.xm58.msky130_fd_pr__nfet_01v8[is]
Warning: unrecognized variable - @m.x1.xm58.msky130_fd_pr__nfet_01v8[ig]
Warning: unrecognized variable - @m.x1.xm58.msky130_fd_pr__nfet_01v8[ib]
Warning: unrecognized variable - @m.x1.xm59.msky130_fd_pr__nfet_01v8[is]
Warning: unrecognized variable - @m.x1.xm59.msky130_fd_pr__nfet_01v8[ig]
Warning: unrecognized variable - @m.x1.xm59.msky130_fd_pr__nfet_01v8[ib]
Warning: unrecognized variable - @m.x1.xm60.msky130_fd_pr__nfet_01v8[is]
Warning: unrecognized variable - @m.x1.xm60.msky130_fd_pr__nfet_01v8[ig]
Warning: unrecognized variable - @m.x1.xm60.msky130_fd_pr__nfet_01v8[ib]
Warning: unrecognized variable - @m.x1.xm61.msky130_fd_pr__nfet_01v8[is]
Warning: unrecognized variable - @m.x1.xm61.msky130_fd_pr__nfet_01v8[ig]
Warning: unrecognized variable - @m.x1.xm61.msky130_fd_pr__nfet_01v8[ib]
Warning: unrecognized variable - @m.x1.xm62.msky130_fd_pr__nfet_01v8[is]
Warning: unrecognized variable - @m.x1.xm62.msky130_fd_pr__nfet_01v8[ig]
Warning: unrecognized variable - @m.x1.xm62.msky130_fd_pr__nfet_01v8[ib]
Warning: unrecognized variable - @m.x1.xm63.msky130_fd_pr__nfet_01v8[is]
Warning: unrecognized variable - @m.x1.xm63.msky130_fd_pr__nfet_01v8[ig]
Warning: unrecognized variable - @m.x1.xm63.msky130_fd_pr__nfet_01v8[ib]
Warning: unrecognized variable - @m.x1.xm64.msky130_fd_pr__nfet_01v8[is]
Warning: unrecognized variable - @m.x1.xm64.msky130_fd_pr__nfet_01v8[ig]
Warning: unrecognized variable - @m.x1.xm64.msky130_fd_pr__nfet_01v8[ib]
Warning: unrecognized variable - @m.x1.xm65.msky130_fd_pr__nfet_01v8[is]
Warning: unrecognized variable - @m.x1.xm65.msky130_fd_pr__nfet_01v8[ig]
Warning: unrecognized variable - @m.x1.xm65.msky130_fd_pr__nfet_01v8[ib]
Warning: unrecognized variable - @m.x1.xm66.msky130_fd_pr__nfet_01v8[is]
Warning: unrecognized variable - @m.x1.xm66.msky130_fd_pr__nfet_01v8[ig]
Warning: unrecognized variable - @m.x1.xm66.msky130_fd_pr__nfet_01v8[ib]
Warning: unrecognized variable - @m.x1.xm67.msky130_fd_pr__nfet_01v8[is]
Warning: unrecognized variable - @m.x1.xm67.msky130_fd_pr__nfet_01v8[ig]
Warning: unrecognized variable - @m.x1.xm67.msky130_fd_pr__nfet_01v8[ib]
Warning: unrecognized variable - @m.x1.xm68.msky130_fd_pr__nfet_01v8[is]
Warning: unrecognized variable - @m.x1.xm68.msky130_fd_pr__nfet_01v8[ig]
Warning: unrecognized variable - @m.x1.xm68.msky130_fd_pr__nfet_01v8[ib]
Warning: unrecognized variable - @m.x1.xm69.msky130_fd_pr__nfet_01v8[is]
Warning: unrecognized variable - @m.x1.xm69.msky130_fd_pr__nfet_01v8[ig]
Warning: unrecognized variable - @m.x1.xm69.msky130_fd_pr__nfet_01v8[ib]
Warning: unrecognized variable - @m.x1.xm70.msky130_fd_pr__nfet_01v8[is]
Warning: unrecognized variable - @m.x1.xm70.msky130_fd_pr__nfet_01v8[ig]
Warning: unrecognized variable - @m.x1.xm70.msky130_fd_pr__nfet_01v8[ib]
Warning: unrecognized variable - @m.x1.xm71.msky130_fd_pr__nfet_01v8[is]
Warning: unrecognized variable - @m.x1.xm71.msky130_fd_pr__nfet_01v8[ig]
Warning: unrecognized variable - @m.x1.xm71.msky130_fd_pr__nfet_01v8[ib]
Warning: unrecognized variable - @m.x1.xm72.msky130_fd_pr__nfet_01v8[is]
Warning: unrecognized variable - @m.x1.xm72.msky130_fd_pr__nfet_01v8[ig]
Warning: unrecognized variable - @m.x1.xm72.msky130_fd_pr__nfet_01v8[ib]
Warning: unrecognized variable - @m.x1.xm73.msky130_fd_pr__nfet_01v8[is]
Warning: unrecognized variable - @m.x1.xm73.msky130_fd_pr__nfet_01v8[ig]
Warning: unrecognized variable - @m.x1.xm73.msky130_fd_pr__nfet_01v8[ib]
Warning: unrecognized variable - @m.x1.xm74.msky130_fd_pr__nfet_01v8[is]
Warning: unrecognized variable - @m.x1.xm74.msky130_fd_pr__nfet_01v8[ig]
Warning: unrecognized variable - @m.x1.xm74.msky130_fd_pr__nfet_01v8[ib]
Warning: unrecognized variable - @m.x1.xm75.msky130_fd_pr__nfet_01v8[is]
Warning: unrecognized variable - @m.x1.xm75.msky130_fd_pr__nfet_01v8[ig]
Warning: unrecognized variable - @m.x1.xm75.msky130_fd_pr__nfet_01v8[ib]
Warning: unrecognized variable - @m.x1.xm76.msky130_fd_pr__nfet_01v8[is]
Warning: unrecognized variable - @m.x1.xm76.msky130_fd_pr__nfet_01v8[ig]
Warning: unrecognized variable - @m.x1.xm76.msky130_fd_pr__nfet_01v8[ib]
Warning: unrecognized variable - @m.x1.xm77.msky130_fd_pr__nfet_01v8[is]
Warning: unrecognized variable - @m.x1.xm77.msky130_fd_pr__nfet_01v8[ig]
Warning: unrecognized variable - @m.x1.xm77.msky130_fd_pr__nfet_01v8[ib]
Warning: unrecognized variable - @m.x1.xm78.msky130_fd_pr__nfet_01v8[is]
Warning: unrecognized variable - @m.x1.xm78.msky130_fd_pr__nfet_01v8[ig]
Warning: unrecognized variable - @m.x1.xm78.msky130_fd_pr__nfet_01v8[ib]
Warning: unrecognized variable - @m.x1.xm79.msky130_fd_pr__nfet_01v8[is]
Warning: unrecognized variable - @m.x1.xm79.msky130_fd_pr__nfet_01v8[ig]
Warning: unrecognized variable - @m.x1.xm79.msky130_fd_pr__nfet_01v8[ib]
Warning: unrecognized variable - @m.x1.xm80.msky130_fd_pr__nfet_01v8[is]
Warning: unrecognized variable - @m.x1.xm80.msky130_fd_pr__nfet_01v8[ig]
Warning: unrecognized variable - @m.x1.xm80.msky130_fd_pr__nfet_01v8[ib]
Warning: unrecognized variable - @m.x1.xm81.msky130_fd_pr__nfet_01v8[is]
Warning: unrecognized variable - @m.x1.xm81.msky130_fd_pr__nfet_01v8[ig]
Warning: unrecognized variable - @m.x1.xm81.msky130_fd_pr__nfet_01v8[ib]
Warning: unrecognized variable - @m.x1.xm82.msky130_fd_pr__nfet_01v8[is]
Warning: unrecognized variable - @m.x1.xm82.msky130_fd_pr__nfet_01v8[ig]
Warning: unrecognized variable - @m.x1.xm82.msky130_fd_pr__nfet_01v8[ib]
Warning: unrecognized variable - @m.x1.xm83.msky130_fd_pr__nfet_01v8[is]
Warning: unrecognized variable - @m.x1.xm83.msky130_fd_pr__nfet_01v8[ig]
Warning: unrecognized variable - @m.x1.xm83.msky130_fd_pr__nfet_01v8[ib]
Warning: unrecognized variable - @m.x1.xm84.msky130_fd_pr__nfet_01v8[is]
Warning: unrecognized variable - @m.x1.xm84.msky130_fd_pr__nfet_01v8[ig]
Warning: unrecognized variable - @m.x1.xm84.msky130_fd_pr__nfet_01v8[ib]
Warning: unrecognized variable - @m.x1.xm85.msky130_fd_pr__nfet_01v8[is]
Warning: unrecognized variable - @m.x1.xm85.msky130_fd_pr__nfet_01v8[ig]
Warning: unrecognized variable - @m.x1.xm85.msky130_fd_pr__nfet_01v8[ib]
Warning: unrecognized variable - @m.x1.xm86.msky130_fd_pr__nfet_01v8[is]
Warning: unrecognized variable - @m.x1.xm86.msky130_fd_pr__nfet_01v8[ig]
Warning: unrecognized variable - @m.x1.xm86.msky130_fd_pr__nfet_01v8[ib]
Warning: unrecognized variable - @m.x1.xm87.msky130_fd_pr__nfet_01v8[is]
Warning: unrecognized variable - @m.x1.xm87.msky130_fd_pr__nfet_01v8[ig]
Warning: unrecognized variable - @m.x1.xm87.msky130_fd_pr__nfet_01v8[ib]
Warning: unrecognized variable - @m.x1.xm88.msky130_fd_pr__nfet_01v8[is]
Warning: unrecognized variable - @m.x1.xm88.msky130_fd_pr__nfet_01v8[ig]
Warning: unrecognized variable - @m.x1.xm88.msky130_fd_pr__nfet_01v8[ib]
Warning: unrecognized variable - @m.x1.xm89.msky130_fd_pr__nfet_01v8[is]
Warning: unrecognized variable - @m.x1.xm89.msky130_fd_pr__nfet_01v8[ig]
Warning: unrecognized variable - @m.x1.xm89.msky130_fd_pr__nfet_01v8[ib]
Warning: unrecognized variable - @m.x1.xm90.msky130_fd_pr__nfet_01v8[is]
Warning: unrecognized variable - @m.x1.xm90.msky130_fd_pr__nfet_01v8[ig]
Warning: unrecognized variable - @m.x1.xm90.msky130_fd_pr__nfet_01v8[ib]
Warning: unrecognized variable - @m.x1.xm91.msky130_fd_pr__nfet_01v8[is]
Warning: unrecognized variable - @m.x1.xm91.msky130_fd_pr__nfet_01v8[ig]
Warning: unrecognized variable - @m.x1.xm91.msky130_fd_pr__nfet_01v8[ib]
Warning: unrecognized variable - @m.x1.xm92.msky130_fd_pr__nfet_01v8[is]
Warning: unrecognized variable - @m.x1.xm92.msky130_fd_pr__nfet_01v8[ig]
Warning: unrecognized variable - @m.x1.xm92.msky130_fd_pr__nfet_01v8[ib]
Warning: unrecognized variable - @m.x1.xm93.msky130_fd_pr__nfet_01v8[is]
Warning: unrecognized variable - @m.x1.xm93.msky130_fd_pr__nfet_01v8[ig]
Warning: unrecognized variable - @m.x1.xm93.msky130_fd_pr__nfet_01v8[ib]
Warning: unrecognized variable - @m.x1.xm94.msky130_fd_pr__nfet_01v8[is]
Warning: unrecognized variable - @m.x1.xm94.msky130_fd_pr__nfet_01v8[ig]
Warning: unrecognized variable - @m.x1.xm94.msky130_fd_pr__nfet_01v8[ib]
Warning: unrecognized variable - @m.x1.xm95.msky130_fd_pr__nfet_01v8[is]
Warning: unrecognized variable - @m.x1.xm95.msky130_fd_pr__nfet_01v8[ig]
Warning: unrecognized variable - @m.x1.xm95.msky130_fd_pr__nfet_01v8[ib]
Warning: unrecognized variable - @m.x1.xm96.msky130_fd_pr__nfet_01v8[is]
Warning: unrecognized variable - @m.x1.xm96.msky130_fd_pr__nfet_01v8[ig]
Warning: unrecognized variable - @m.x1.xm96.msky130_fd_pr__nfet_01v8[ib]
Warning: unrecognized variable - @m.x1.xm97.msky130_fd_pr__nfet_01v8[is]
Warning: unrecognized variable - @m.x1.xm97.msky130_fd_pr__nfet_01v8[ig]
Warning: unrecognized variable - @m.x1.xm97.msky130_fd_pr__nfet_01v8[ib]
Warning: unrecognized variable - @m.x1.xm98.msky130_fd_pr__nfet_01v8[is]
Warning: unrecognized variable - @m.x1.xm98.msky130_fd_pr__nfet_01v8[ig]
Warning: unrecognized variable - @m.x1.xm98.msky130_fd_pr__nfet_01v8[ib]
Warning: unrecognized variable - @m.x1.xm99.msky130_fd_pr__nfet_01v8[is]
Warning: unrecognized variable - @m.x1.xm99.msky130_fd_pr__nfet_01v8[ig]
Warning: unrecognized variable - @m.x1.xm99.msky130_fd_pr__nfet_01v8[ib]
Warning: unrecognized variable - @m.x1.xm100.msky130_fd_pr__nfet_01v8[is]
Warning: unrecognized variable - @m.x1.xm100.msky130_fd_pr__nfet_01v8[ig]
Warning: unrecognized variable - @m.x1.xm100.msky130_fd_pr__nfet_01v8[ib]
Warning: unrecognized variable - @m.x1.xm101.msky130_fd_pr__nfet_01v8[is]
Warning: unrecognized variable - @m.x1.xm101.msky130_fd_pr__nfet_01v8[ig]
Warning: unrecognized variable - @m.x1.xm101.msky130_fd_pr__nfet_01v8[ib]
Warning: unrecognized variable - @m.x1.xm102.msky130_fd_pr__nfet_01v8[is]
Warning: unrecognized variable - @m.x1.xm102.msky130_fd_pr__nfet_01v8[ig]
Warning: unrecognized variable - @m.x1.xm102.msky130_fd_pr__nfet_01v8[ib]
Warning: unrecognized variable - @m.x1.xm103.msky130_fd_pr__nfet_01v8[is]
Warning: unrecognized variable - @m.x1.xm103.msky130_fd_pr__nfet_01v8[ig]
Warning: unrecognized variable - @m.x1.xm103.msky130_fd_pr__nfet_01v8[ib]
Warning: unrecognized variable - @m.x1.xm104.msky130_fd_pr__nfet_01v8[is]
Warning: unrecognized variable - @m.x1.xm104.msky130_fd_pr__nfet_01v8[ig]
Warning: unrecognized variable - @m.x1.xm104.msky130_fd_pr__nfet_01v8[ib]
Warning: unrecognized variable - @m.x1.xm105.msky130_fd_pr__nfet_01v8[is]
Warning: unrecognized variable - @m.x1.xm105.msky130_fd_pr__nfet_01v8[ig]
Warning: unrecognized variable - @m.x1.xm105.msky130_fd_pr__nfet_01v8[ib]
Warning: unrecognized variable - @m.x1.xm106.msky130_fd_pr__nfet_01v8[is]
Warning: unrecognized variable - @m.x1.xm106.msky130_fd_pr__nfet_01v8[ig]
Warning: unrecognized variable - @m.x1.xm106.msky130_fd_pr__nfet_01v8[ib]
Warning: unrecognized variable - @m.x1.xm107.msky130_fd_pr__nfet_01v8[is]
Warning: unrecognized variable - @m.x1.xm107.msky130_fd_pr__nfet_01v8[ig]
Warning: unrecognized variable - @m.x1.xm107.msky130_fd_pr__nfet_01v8[ib]
Warning: unrecognized variable - @m.x1.xm108.msky130_fd_pr__nfet_01v8[is]
Warning: unrecognized variable - @m.x1.xm108.msky130_fd_pr__nfet_01v8[ig]
Warning: unrecognized variable - @m.x1.xm108.msky130_fd_pr__nfet_01v8[ib]
Warning: unrecognized variable - @m.x1.xm109.msky130_fd_pr__nfet_01v8[is]
Warning: unrecognized variable - @m.x1.xm109.msky130_fd_pr__nfet_01v8[ig]
Warning: unrecognized variable - @m.x1.xm109.msky130_fd_pr__nfet_01v8[ib]
Warning: unrecognized variable - @m.x1.xm110.msky130_fd_pr__nfet_01v8[is]
Warning: unrecognized variable - @m.x1.xm110.msky130_fd_pr__nfet_01v8[ig]
Warning: unrecognized variable - @m.x1.xm110.msky130_fd_pr__nfet_01v8[ib]
Warning: unrecognized variable - @m.x1.xm111.msky130_fd_pr__nfet_01v8[is]
Warning: unrecognized variable - @m.x1.xm111.msky130_fd_pr__nfet_01v8[ig]
Warning: unrecognized variable - @m.x1.xm111.msky130_fd_pr__nfet_01v8[ib]
Warning: unrecognized variable - @m.x1.xm112.msky130_fd_pr__nfet_01v8[is]
Warning: unrecognized variable - @m.x1.xm112.msky130_fd_pr__nfet_01v8[ig]
Warning: unrecognized variable - @m.x1.xm112.msky130_fd_pr__nfet_01v8[ib]
Warning: unrecognized variable - @m.x1.xm113.msky130_fd_pr__nfet_01v8[is]
Warning: unrecognized variable - @m.x1.xm113.msky130_fd_pr__nfet_01v8[ig]
Warning: unrecognized variable - @m.x1.xm113.msky130_fd_pr__nfet_01v8[ib]
Warning: unrecognized variable - @m.x1.xm114.msky130_fd_pr__nfet_01v8[is]
Warning: unrecognized variable - @m.x1.xm114.msky130_fd_pr__nfet_01v8[ig]
Warning: unrecognized variable - @m.x1.xm114.msky130_fd_pr__nfet_01v8[ib]
Warning: unrecognized variable - @m.x1.xm115.msky130_fd_pr__nfet_01v8[is]
Warning: unrecognized variable - @m.x1.xm115.msky130_fd_pr__nfet_01v8[ig]
Warning: unrecognized variable - @m.x1.xm115.msky130_fd_pr__nfet_01v8[ib]
Warning: unrecognized variable - @m.x1.xm116.msky130_fd_pr__nfet_01v8[is]
Warning: unrecognized variable - @m.x1.xm116.msky130_fd_pr__nfet_01v8[ig]
Warning: unrecognized variable - @m.x1.xm116.msky130_fd_pr__nfet_01v8[ib]
Warning: unrecognized variable - @m.x1.xm117.msky130_fd_pr__nfet_01v8[is]
Warning: unrecognized variable - @m.x1.xm117.msky130_fd_pr__nfet_01v8[ig]
Warning: unrecognized variable - @m.x1.xm117.msky130_fd_pr__nfet_01v8[ib]
Warning: unrecognized variable - @m.x1.xm118.msky130_fd_pr__nfet_01v8[is]
Warning: unrecognized variable - @m.x1.xm118.msky130_fd_pr__nfet_01v8[ig]
Warning: unrecognized variable - @m.x1.xm118.msky130_fd_pr__nfet_01v8[ib]
Warning: unrecognized variable - @m.x1.xm119.msky130_fd_pr__nfet_01v8[is]
Warning: unrecognized variable - @m.x1.xm119.msky130_fd_pr__nfet_01v8[ig]
Warning: unrecognized variable - @m.x1.xm119.msky130_fd_pr__nfet_01v8[ib]
Warning: unrecognized variable - @m.x1.xm120.msky130_fd_pr__nfet_01v8[is]
Warning: unrecognized variable - @m.x1.xm120.msky130_fd_pr__nfet_01v8[ig]
Warning: unrecognized variable - @m.x1.xm120.msky130_fd_pr__nfet_01v8[ib]
Warning: unrecognized variable - @m.x1.xm121.msky130_fd_pr__nfet_01v8[is]
Warning: unrecognized variable - @m.x1.xm121.msky130_fd_pr__nfet_01v8[ig]
Warning: unrecognized variable - @m.x1.xm121.msky130_fd_pr__nfet_01v8[ib]
Warning: unrecognized variable - @m.x1.xm122.msky130_fd_pr__nfet_01v8[is]
Warning: unrecognized variable - @m.x1.xm122.msky130_fd_pr__nfet_01v8[ig]
Warning: unrecognized variable - @m.x1.xm122.msky130_fd_pr__nfet_01v8[ib]
Warning: unrecognized variable - @m.x1.xm123.msky130_fd_pr__nfet_01v8[is]
Warning: unrecognized variable - @m.x1.xm123.msky130_fd_pr__nfet_01v8[ig]
Warning: unrecognized variable - @m.x1.xm123.msky130_fd_pr__nfet_01v8[ib]
Warning: unrecognized variable - @m.x1.xm124.msky130_fd_pr__nfet_01v8[is]
Warning: unrecognized variable - @m.x1.xm124.msky130_fd_pr__nfet_01v8[ig]
Warning: unrecognized variable - @m.x1.xm124.msky130_fd_pr__nfet_01v8[ib]
Warning: unrecognized variable - @m.x1.xm125.msky130_fd_pr__nfet_01v8[is]
Warning: unrecognized variable - @m.x1.xm125.msky130_fd_pr__nfet_01v8[ig]
Warning: unrecognized variable - @m.x1.xm125.msky130_fd_pr__nfet_01v8[ib]
Warning: unrecognized variable - @m.x1.xm126.msky130_fd_pr__nfet_01v8[is]
Warning: unrecognized variable - @m.x1.xm126.msky130_fd_pr__nfet_01v8[ig]
Warning: unrecognized variable - @m.x1.xm126.msky130_fd_pr__nfet_01v8[ib]
Warning: unrecognized variable - @m.x1.xm127.msky130_fd_pr__nfet_01v8[is]
Warning: unrecognized variable - @m.x1.xm127.msky130_fd_pr__nfet_01v8[ig]
Warning: unrecognized variable - @m.x1.xm127.msky130_fd_pr__nfet_01v8[ib]
Warning: unrecognized variable - @m.x1.xm128.msky130_fd_pr__nfet_01v8[is]
Warning: unrecognized variable - @m.x1.xm128.msky130_fd_pr__nfet_01v8[ig]
Warning: unrecognized variable - @m.x1.xm128.msky130_fd_pr__nfet_01v8[ib]
Warning: unrecognized variable - @m.x1.xm129.msky130_fd_pr__nfet_01v8[is]
Warning: unrecognized variable - @m.x1.xm129.msky130_fd_pr__nfet_01v8[ig]
Warning: unrecognized variable - @m.x1.xm129.msky130_fd_pr__nfet_01v8[ib]
Warning: unrecognized variable - @m.x1.xm130.msky130_fd_pr__nfet_01v8[is]
Warning: unrecognized variable - @m.x1.xm130.msky130_fd_pr__nfet_01v8[ig]
Warning: unrecognized variable - @m.x1.xm130.msky130_fd_pr__nfet_01v8[ib]
Warning: unrecognized variable - @m.x1.xm131.msky130_fd_pr__nfet_01v8[is]
Warning: unrecognized variable - @m.x1.xm131.msky130_fd_pr__nfet_01v8[ig]
Warning: unrecognized variable - @m.x1.xm131.msky130_fd_pr__nfet_01v8[ib]
Warning: unrecognized variable - @m.x1.xm132.msky130_fd_pr__nfet_01v8[is]
Warning: unrecognized variable - @m.x1.xm132.msky130_fd_pr__nfet_01v8[ig]
Warning: unrecognized variable - @m.x1.xm132.msky130_fd_pr__nfet_01v8[ib]
Warning: unrecognized variable - @m.x1.xm133.msky130_fd_pr__nfet_01v8[is]
Warning: unrecognized variable - @m.x1.xm133.msky130_fd_pr__nfet_01v8[ig]
Warning: unrecognized variable - @m.x1.xm133.msky130_fd_pr__nfet_01v8[ib]
Warning: unrecognized variable - @m.x1.xm134.msky130_fd_pr__nfet_01v8[is]
Warning: unrecognized variable - @m.x1.xm134.msky130_fd_pr__nfet_01v8[ig]
Warning: unrecognized variable - @m.x1.xm134.msky130_fd_pr__nfet_01v8[ib]
Warning: unrecognized variable - @m.x1.xm135.msky130_fd_pr__nfet_01v8[is]
Warning: unrecognized variable - @m.x1.xm135.msky130_fd_pr__nfet_01v8[ig]
Warning: unrecognized variable - @m.x1.xm135.msky130_fd_pr__nfet_01v8[ib]
Warning: unrecognized variable - @m.x1.xm136.msky130_fd_pr__nfet_01v8[is]
Warning: unrecognized variable - @m.x1.xm136.msky130_fd_pr__nfet_01v8[ig]
Warning: unrecognized variable - @m.x1.xm136.msky130_fd_pr__nfet_01v8[ib]
Warning: unrecognized variable - @m.x1.xm137.msky130_fd_pr__nfet_01v8[is]
Warning: unrecognized variable - @m.x1.xm137.msky130_fd_pr__nfet_01v8[ig]
Warning: unrecognized variable - @m.x1.xm137.msky130_fd_pr__nfet_01v8[ib]
Warning: unrecognized variable - @m.x1.xm138.msky130_fd_pr__nfet_01v8[is]
Warning: unrecognized variable - @m.x1.xm138.msky130_fd_pr__nfet_01v8[ig]
Warning: unrecognized variable - @m.x1.xm138.msky130_fd_pr__nfet_01v8[ib]
Warning: unrecognized variable - @m.x1.xm139.msky130_fd_pr__nfet_01v8[is]
Warning: unrecognized variable - @m.x1.xm139.msky130_fd_pr__nfet_01v8[ig]
Warning: unrecognized variable - @m.x1.xm139.msky130_fd_pr__nfet_01v8[ib]
Warning: unrecognized variable - @m.x1.xm140.msky130_fd_pr__nfet_01v8[is]
Warning: unrecognized variable - @m.x1.xm140.msky130_fd_pr__nfet_01v8[ig]
Warning: unrecognized variable - @m.x1.xm140.msky130_fd_pr__nfet_01v8[ib]
Warning: unrecognized variable - @m.x1.xm141.msky130_fd_pr__nfet_01v8[is]
Warning: unrecognized variable - @m.x1.xm141.msky130_fd_pr__nfet_01v8[ig]
Warning: unrecognized variable - @m.x1.xm141.msky130_fd_pr__nfet_01v8[ib]
Warning: unrecognized variable - @m.x1.xm142.msky130_fd_pr__nfet_01v8[is]
Warning: unrecognized variable - @m.x1.xm142.msky130_fd_pr__nfet_01v8[ig]
Warning: unrecognized variable - @m.x1.xm142.msky130_fd_pr__nfet_01v8[ib]
Warning: unrecognized variable - @m.x1.xm143.msky130_fd_pr__nfet_01v8[is]
Warning: unrecognized variable - @m.x1.xm143.msky130_fd_pr__nfet_01v8[ig]
Warning: unrecognized variable - @m.x1.xm143.msky130_fd_pr__nfet_01v8[ib]
Warning: unrecognized variable - @m.x1.xm144.msky130_fd_pr__nfet_01v8[is]
Warning: unrecognized variable - @m.x1.xm144.msky130_fd_pr__nfet_01v8[ig]
Warning: unrecognized variable - @m.x1.xm144.msky130_fd_pr__nfet_01v8[ib]
Warning: unrecognized variable - @m.x1.xm145.msky130_fd_pr__nfet_01v8[is]
Warning: unrecognized variable - @m.x1.xm145.msky130_fd_pr__nfet_01v8[ig]
Warning: unrecognized variable - @m.x1.xm145.msky130_fd_pr__nfet_01v8[ib]
Warning: unrecognized variable - @m.x1.xm146.msky130_fd_pr__nfet_01v8[is]
Warning: unrecognized variable - @m.x1.xm146.msky130_fd_pr__nfet_01v8[ig]
Warning: unrecognized variable - @m.x1.xm146.msky130_fd_pr__nfet_01v8[ib]
Warning: unrecognized variable - @m.x1.xm147.msky130_fd_pr__nfet_01v8[is]
Warning: unrecognized variable - @m.x1.xm147.msky130_fd_pr__nfet_01v8[ig]
Warning: unrecognized variable - @m.x1.xm147.msky130_fd_pr__nfet_01v8[ib]
Warning: unrecognized variable - @m.x1.xm148.msky130_fd_pr__nfet_01v8[is]
Warning: unrecognized variable - @m.x1.xm148.msky130_fd_pr__nfet_01v8[ig]
Warning: unrecognized variable - @m.x1.xm148.msky130_fd_pr__nfet_01v8[ib]
Warning: unrecognized variable - @m.x1.xm149.msky130_fd_pr__nfet_01v8[is]
Warning: unrecognized variable - @m.x1.xm149.msky130_fd_pr__nfet_01v8[ig]
Warning: unrecognized variable - @m.x1.xm149.msky130_fd_pr__nfet_01v8[ib]
Warning: unrecognized variable - @m.x1.xm150.msky130_fd_pr__nfet_01v8[is]
Warning: unrecognized variable - @m.x1.xm150.msky130_fd_pr__nfet_01v8[ig]
Warning: unrecognized variable - @m.x1.xm150.msky130_fd_pr__nfet_01v8[ib]
Warning: unrecognized variable - @m.x1.xm151.msky130_fd_pr__nfet_01v8[is]
Warning: unrecognized variable - @m.x1.xm151.msky130_fd_pr__nfet_01v8[ig]
Warning: unrecognized variable - @m.x1.xm151.msky130_fd_pr__nfet_01v8[ib]
Warning: unrecognized variable - @m.x1.xm152.msky130_fd_pr__nfet_01v8[is]
Warning: unrecognized variable - @m.x1.xm152.msky130_fd_pr__nfet_01v8[ig]
Warning: unrecognized variable - @m.x1.xm152.msky130_fd_pr__nfet_01v8[ib]
Warning: unrecognized variable - @m.x1.xm153.msky130_fd_pr__nfet_01v8[is]
Warning: unrecognized variable - @m.x1.xm153.msky130_fd_pr__nfet_01v8[ig]
Warning: unrecognized variable - @m.x1.xm153.msky130_fd_pr__nfet_01v8[ib]
Warning: unrecognized variable - @m.x1.xm154.msky130_fd_pr__nfet_01v8[is]
Warning: unrecognized variable - @m.x1.xm154.msky130_fd_pr__nfet_01v8[ig]
Warning: unrecognized variable - @m.x1.xm154.msky130_fd_pr__nfet_01v8[ib]
Warning: unrecognized variable - @m.x1.xm155.msky130_fd_pr__nfet_01v8[is]
Warning: unrecognized variable - @m.x1.xm155.msky130_fd_pr__nfet_01v8[ig]
Warning: unrecognized variable - @m.x1.xm155.msky130_fd_pr__nfet_01v8[ib]
Warning: unrecognized variable - @m.x1.xm156.msky130_fd_pr__nfet_01v8[is]
Warning: unrecognized variable - @m.x1.xm156.msky130_fd_pr__nfet_01v8[ig]
Warning: unrecognized variable - @m.x1.xm156.msky130_fd_pr__nfet_01v8[ib]
Warning: unrecognized variable - @m.x1.xm157.msky130_fd_pr__nfet_01v8[is]
Warning: unrecognized variable - @m.x1.xm157.msky130_fd_pr__nfet_01v8[ig]
Warning: unrecognized variable - @m.x1.xm157.msky130_fd_pr__nfet_01v8[ib]
Warning: unrecognized variable - @m.x1.xm158.msky130_fd_pr__nfet_01v8[is]
Warning: unrecognized variable - @m.x1.xm158.msky130_fd_pr__nfet_01v8[ig]
Warning: unrecognized variable - @m.x1.xm158.msky130_fd_pr__nfet_01v8[ib]
Warning: unrecognized variable - @m.x1.xm159.msky130_fd_pr__nfet_01v8[is]
Warning: unrecognized variable - @m.x1.xm159.msky130_fd_pr__nfet_01v8[ig]
Warning: unrecognized variable - @m.x1.xm159.msky130_fd_pr__nfet_01v8[ib]
Warning: unrecognized variable - @m.x1.xm160.msky130_fd_pr__nfet_01v8[is]
Warning: unrecognized variable - @m.x1.xm160.msky130_fd_pr__nfet_01v8[ig]
Warning: unrecognized variable - @m.x1.xm160.msky130_fd_pr__nfet_01v8[ib]
Warning: unrecognized variable - @m.x1.xm161.msky130_fd_pr__nfet_01v8[is]
Warning: unrecognized variable - @m.x1.xm161.msky130_fd_pr__nfet_01v8[ig]
Warning: unrecognized variable - @m.x1.xm161.msky130_fd_pr__nfet_01v8[ib]
Warning: unrecognized variable - @m.x1.xm162.msky130_fd_pr__nfet_01v8[is]
Warning: unrecognized variable - @m.x1.xm162.msky130_fd_pr__nfet_01v8[ig]
Warning: unrecognized variable - @m.x1.xm162.msky130_fd_pr__nfet_01v8[ib]
Warning: unrecognized variable - @m.x1.xm163.msky130_fd_pr__nfet_01v8[is]
Warning: unrecognized variable - @m.x1.xm163.msky130_fd_pr__nfet_01v8[ig]
Warning: unrecognized variable - @m.x1.xm163.msky130_fd_pr__nfet_01v8[ib]
Warning: unrecognized variable - @m.x1.xm164.msky130_fd_pr__nfet_01v8[is]
Warning: unrecognized variable - @m.x1.xm164.msky130_fd_pr__nfet_01v8[ig]
Warning: unrecognized variable - @m.x1.xm164.msky130_fd_pr__nfet_01v8[ib]
Warning: unrecognized variable - @m.x1.xm165.msky130_fd_pr__nfet_01v8[is]
Warning: unrecognized variable - @m.x1.xm165.msky130_fd_pr__nfet_01v8[ig]
Warning: unrecognized variable - @m.x1.xm165.msky130_fd_pr__nfet_01v8[ib]
Warning: unrecognized variable - @m.x1.xm166.msky130_fd_pr__nfet_01v8[is]
Warning: unrecognized variable - @m.x1.xm166.msky130_fd_pr__nfet_01v8[ig]
Warning: unrecognized variable - @m.x1.xm166.msky130_fd_pr__nfet_01v8[ib]
Warning: unrecognized variable - @m.x1.xm167.msky130_fd_pr__nfet_01v8[is]
Warning: unrecognized variable - @m.x1.xm167.msky130_fd_pr__nfet_01v8[ig]
Warning: unrecognized variable - @m.x1.xm167.msky130_fd_pr__nfet_01v8[ib]
Warning: unrecognized variable - @m.x1.xm168.msky130_fd_pr__nfet_01v8[is]
Warning: unrecognized variable - @m.x1.xm168.msky130_fd_pr__nfet_01v8[ig]
Warning: unrecognized variable - @m.x1.xm168.msky130_fd_pr__nfet_01v8[ib]
Warning: unrecognized variable - @m.x1.xm169.msky130_fd_pr__nfet_01v8[is]
Warning: unrecognized variable - @m.x1.xm169.msky130_fd_pr__nfet_01v8[ig]
Warning: unrecognized variable - @m.x1.xm169.msky130_fd_pr__nfet_01v8[ib]
Warning: unrecognized variable - @m.x1.xm170.msky130_fd_pr__nfet_01v8[is]
Warning: unrecognized variable - @m.x1.xm170.msky130_fd_pr__nfet_01v8[ig]
Warning: unrecognized variable - @m.x1.xm170.msky130_fd_pr__nfet_01v8[ib]
Warning: unrecognized variable - @m.x1.xm171.msky130_fd_pr__nfet_01v8[is]
Warning: unrecognized variable - @m.x1.xm171.msky130_fd_pr__nfet_01v8[ig]
Warning: unrecognized variable - @m.x1.xm171.msky130_fd_pr__nfet_01v8[ib]
Warning: unrecognized variable - @m.x1.xm172.msky130_fd_pr__nfet_01v8[is]
Warning: unrecognized variable - @m.x1.xm172.msky130_fd_pr__nfet_01v8[ig]
Warning: unrecognized variable - @m.x1.xm172.msky130_fd_pr__nfet_01v8[ib]
Warning: unrecognized variable - @m.x1.xm173.msky130_fd_pr__nfet_01v8[is]
Warning: unrecognized variable - @m.x1.xm173.msky130_fd_pr__nfet_01v8[ig]
Warning: unrecognized variable - @m.x1.xm173.msky130_fd_pr__nfet_01v8[ib]
Warning: unrecognized variable - @m.x1.xm174.msky130_fd_pr__nfet_01v8[is]
Warning: unrecognized variable - @m.x1.xm174.msky130_fd_pr__nfet_01v8[ig]
Warning: unrecognized variable - @m.x1.xm174.msky130_fd_pr__nfet_01v8[ib]
Warning: unrecognized variable - @m.x1.xm175.msky130_fd_pr__nfet_01v8[is]
Warning: unrecognized variable - @m.x1.xm175.msky130_fd_pr__nfet_01v8[ig]
Warning: unrecognized variable - @m.x1.xm175.msky130_fd_pr__nfet_01v8[ib]
Warning: unrecognized variable - @m.x1.xm176.msky130_fd_pr__nfet_01v8[is]
Warning: unrecognized variable - @m.x1.xm176.msky130_fd_pr__nfet_01v8[ig]
Warning: unrecognized variable - @m.x1.xm176.msky130_fd_pr__nfet_01v8[ib]
Warning: unrecognized variable - @m.x1.xm177.msky130_fd_pr__nfet_01v8[is]
Warning: unrecognized variable - @m.x1.xm177.msky130_fd_pr__nfet_01v8[ig]
Warning: unrecognized variable - @m.x1.xm177.msky130_fd_pr__nfet_01v8[ib]
Warning: unrecognized variable - @m.x1.xm178.msky130_fd_pr__nfet_01v8[is]
Warning: unrecognized variable - @m.x1.xm178.msky130_fd_pr__nfet_01v8[ig]
Warning: unrecognized variable - @m.x1.xm178.msky130_fd_pr__nfet_01v8[ib]
Warning: unrecognized variable - @m.x1.xm179.msky130_fd_pr__nfet_01v8[is]
Warning: unrecognized variable - @m.x1.xm179.msky130_fd_pr__nfet_01v8[ig]
Warning: unrecognized variable - @m.x1.xm179.msky130_fd_pr__nfet_01v8[ib]
Warning: unrecognized variable - @m.x1.xm180.msky130_fd_pr__nfet_01v8[is]
Warning: unrecognized variable - @m.x1.xm180.msky130_fd_pr__nfet_01v8[ig]
Warning: unrecognized variable - @m.x1.xm180.msky130_fd_pr__nfet_01v8[ib]
Warning: unrecognized variable - @m.x1.xm181.msky130_fd_pr__nfet_01v8[is]
Warning: unrecognized variable - @m.x1.xm181.msky130_fd_pr__nfet_01v8[ig]
Warning: unrecognized variable - @m.x1.xm181.msky130_fd_pr__nfet_01v8[ib]
Warning: unrecognized variable - @m.x1.xm182.msky130_fd_pr__nfet_01v8[is]
Warning: unrecognized variable - @m.x1.xm182.msky130_fd_pr__nfet_01v8[ig]
Warning: unrecognized variable - @m.x1.xm182.msky130_fd_pr__nfet_01v8[ib]
Warning: unrecognized variable - @m.x1.xm183.msky130_fd_pr__nfet_01v8[is]
Warning: unrecognized variable - @m.x1.xm183.msky130_fd_pr__nfet_01v8[ig]
Warning: unrecognized variable - @m.x1.xm183.msky130_fd_pr__nfet_01v8[ib]
Warning: unrecognized variable - @m.x1.xm184.msky130_fd_pr__nfet_01v8[is]
Warning: unrecognized variable - @m.x1.xm184.msky130_fd_pr__nfet_01v8[ig]
Warning: unrecognized variable - @m.x1.xm184.msky130_fd_pr__nfet_01v8[ib]
Warning: unrecognized variable - @m.x1.xm185.msky130_fd_pr__nfet_01v8[is]
Warning: unrecognized variable - @m.x1.xm185.msky130_fd_pr__nfet_01v8[ig]
Warning: unrecognized variable - @m.x1.xm185.msky130_fd_pr__nfet_01v8[ib]
Warning: unrecognized variable - @m.x1.xm186.msky130_fd_pr__nfet_01v8[is]
Warning: unrecognized variable - @m.x1.xm186.msky130_fd_pr__nfet_01v8[ig]
Warning: unrecognized variable - @m.x1.xm186.msky130_fd_pr__nfet_01v8[ib]
Warning: unrecognized variable - @m.x1.xm187.msky130_fd_pr__nfet_01v8[is]
Warning: unrecognized variable - @m.x1.xm187.msky130_fd_pr__nfet_01v8[ig]
Warning: unrecognized variable - @m.x1.xm187.msky130_fd_pr__nfet_01v8[ib]
Warning: unrecognized variable - @m.x1.xm188.msky130_fd_pr__nfet_01v8[is]
Warning: unrecognized variable - @m.x1.xm188.msky130_fd_pr__nfet_01v8[ig]
Warning: unrecognized variable - @m.x1.xm188.msky130_fd_pr__nfet_01v8[ib]
Warning: unrecognized variable - @m.x1.xm189.msky130_fd_pr__nfet_01v8[is]
Warning: unrecognized variable - @m.x1.xm189.msky130_fd_pr__nfet_01v8[ig]
Warning: unrecognized variable - @m.x1.xm189.msky130_fd_pr__nfet_01v8[ib]
Warning: unrecognized variable - @m.x1.xm190.msky130_fd_pr__nfet_01v8[is]
Warning: unrecognized variable - @m.x1.xm190.msky130_fd_pr__nfet_01v8[ig]
Warning: unrecognized variable - @m.x1.xm190.msky130_fd_pr__nfet_01v8[ib]
Warning: unrecognized variable - @m.x1.xm191.msky130_fd_pr__nfet_01v8[is]
Warning: unrecognized variable - @m.x1.xm191.msky130_fd_pr__nfet_01v8[ig]
Warning: unrecognized variable - @m.x1.xm191.msky130_fd_pr__nfet_01v8[ib]
Warning: unrecognized variable - @m.x1.xm192.msky130_fd_pr__nfet_01v8[is]
Warning: unrecognized variable - @m.x1.xm192.msky130_fd_pr__nfet_01v8[ig]
Warning: unrecognized variable - @m.x1.xm192.msky130_fd_pr__nfet_01v8[ib]
Warning: unrecognized variable - @m.x1.xm193.msky130_fd_pr__nfet_01v8[is]
Warning: unrecognized variable - @m.x1.xm193.msky130_fd_pr__nfet_01v8[ig]
Warning: unrecognized variable - @m.x1.xm193.msky130_fd_pr__nfet_01v8[ib]
Warning: unrecognized variable - @m.x1.xm194.msky130_fd_pr__nfet_01v8[is]
Warning: unrecognized variable - @m.x1.xm194.msky130_fd_pr__nfet_01v8[ig]
Warning: unrecognized variable - @m.x1.xm194.msky130_fd_pr__nfet_01v8[ib]
Warning: unrecognized variable - @m.x1.xm195.msky130_fd_pr__nfet_01v8[is]
Warning: unrecognized variable - @m.x1.xm195.msky130_fd_pr__nfet_01v8[ig]
Warning: unrecognized variable - @m.x1.xm195.msky130_fd_pr__nfet_01v8[ib]
Warning: unrecognized variable - @m.x1.xm196.msky130_fd_pr__nfet_01v8[is]
Warning: unrecognized variable - @m.x1.xm196.msky130_fd_pr__nfet_01v8[ig]
Warning: unrecognized variable - @m.x1.xm196.msky130_fd_pr__nfet_01v8[ib]
Warning: unrecognized variable - @m.x1.xm197.msky130_fd_pr__nfet_01v8[is]
Warning: unrecognized variable - @m.x1.xm197.msky130_fd_pr__nfet_01v8[ig]
Warning: unrecognized variable - @m.x1.xm197.msky130_fd_pr__nfet_01v8[ib]
Warning: unrecognized variable - @m.x1.xm198.msky130_fd_pr__nfet_01v8[is]
Warning: unrecognized variable - @m.x1.xm198.msky130_fd_pr__nfet_01v8[ig]
Warning: unrecognized variable - @m.x1.xm198.msky130_fd_pr__nfet_01v8[ib]
Warning: unrecognized variable - @m.x1.xm199.msky130_fd_pr__nfet_01v8[is]
Warning: unrecognized variable - @m.x1.xm199.msky130_fd_pr__nfet_01v8[ig]
Warning: unrecognized variable - @m.x1.xm199.msky130_fd_pr__nfet_01v8[ib]
Warning: unrecognized variable - @m.x1.xm200.msky130_fd_pr__nfet_01v8[is]
Warning: unrecognized variable - @m.x1.xm200.msky130_fd_pr__nfet_01v8[ig]
Warning: unrecognized variable - @m.x1.xm200.msky130_fd_pr__nfet_01v8[ib]
Warning: unrecognized variable - @m.x1.xm201.msky130_fd_pr__nfet_01v8[is]
Warning: unrecognized variable - @m.x1.xm201.msky130_fd_pr__nfet_01v8[ig]
Warning: unrecognized variable - @m.x1.xm201.msky130_fd_pr__nfet_01v8[ib]
Warning: unrecognized variable - @m.x1.xm202.msky130_fd_pr__nfet_01v8[is]
Warning: unrecognized variable - @m.x1.xm202.msky130_fd_pr__nfet_01v8[ig]
Warning: unrecognized variable - @m.x1.xm202.msky130_fd_pr__nfet_01v8[ib]
Warning: unrecognized variable - @m.x1.xm203.msky130_fd_pr__nfet_01v8[is]
Warning: unrecognized variable - @m.x1.xm203.msky130_fd_pr__nfet_01v8[ig]
Warning: unrecognized variable - @m.x1.xm203.msky130_fd_pr__nfet_01v8[ib]
Warning: unrecognized variable - @m.x1.xm204.msky130_fd_pr__nfet_01v8[is]
Warning: unrecognized variable - @m.x1.xm204.msky130_fd_pr__nfet_01v8[ig]
Warning: unrecognized variable - @m.x1.xm204.msky130_fd_pr__nfet_01v8[ib]
Warning: unrecognized variable - @m.x1.xm205.msky130_fd_pr__nfet_01v8[is]
Warning: unrecognized variable - @m.x1.xm205.msky130_fd_pr__nfet_01v8[ig]
Warning: unrecognized variable - @m.x1.xm205.msky130_fd_pr__nfet_01v8[ib]
Warning: unrecognized variable - @m.x1.xm206.msky130_fd_pr__nfet_01v8[is]
Warning: unrecognized variable - @m.x1.xm206.msky130_fd_pr__nfet_01v8[ig]
Warning: unrecognized variable - @m.x1.xm206.msky130_fd_pr__nfet_01v8[ib]
Warning: unrecognized variable - @m.x1.xm207.msky130_fd_pr__nfet_01v8[is]
Warning: unrecognized variable - @m.x1.xm207.msky130_fd_pr__nfet_01v8[ig]
Warning: unrecognized variable - @m.x1.xm207.msky130_fd_pr__nfet_01v8[ib]
Warning: unrecognized variable - @m.x1.xm208.msky130_fd_pr__nfet_01v8[is]
Warning: unrecognized variable - @m.x1.xm208.msky130_fd_pr__nfet_01v8[ig]
Warning: unrecognized variable - @m.x1.xm208.msky130_fd_pr__nfet_01v8[ib]
Warning: unrecognized variable - @m.x1.xm209.msky130_fd_pr__nfet_01v8[is]
Warning: unrecognized variable - @m.x1.xm209.msky130_fd_pr__nfet_01v8[ig]
Warning: unrecognized variable - @m.x1.xm209.msky130_fd_pr__nfet_01v8[ib]
Warning: unrecognized variable - @m.x1.xm210.msky130_fd_pr__nfet_01v8[is]
Warning: unrecognized variable - @m.x1.xm210.msky130_fd_pr__nfet_01v8[ig]
Warning: unrecognized variable - @m.x1.xm210.msky130_fd_pr__nfet_01v8[ib]
Warning: unrecognized variable - @m.x1.xm211.msky130_fd_pr__nfet_01v8[is]
Warning: unrecognized variable - @m.x1.xm211.msky130_fd_pr__nfet_01v8[ig]
Warning: unrecognized variable - @m.x1.xm211.msky130_fd_pr__nfet_01v8[ib]
Warning: unrecognized variable - @m.x1.xm212.msky130_fd_pr__nfet_01v8[is]
Warning: unrecognized variable - @m.x1.xm212.msky130_fd_pr__nfet_01v8[ig]
Warning: unrecognized variable - @m.x1.xm212.msky130_fd_pr__nfet_01v8[ib]
Warning: unrecognized variable - @m.x1.xm213.msky130_fd_pr__nfet_01v8[is]
Warning: unrecognized variable - @m.x1.xm213.msky130_fd_pr__nfet_01v8[ig]
Warning: unrecognized variable - @m.x1.xm213.msky130_fd_pr__nfet_01v8[ib]
Warning: unrecognized variable - @m.x1.xm214.msky130_fd_pr__nfet_01v8[is]
Warning: unrecognized variable - @m.x1.xm214.msky130_fd_pr__nfet_01v8[ig]
Warning: unrecognized variable - @m.x1.xm214.msky130_fd_pr__nfet_01v8[ib]
Warning: unrecognized variable - @m.x1.xm215.msky130_fd_pr__nfet_01v8[is]
Warning: unrecognized variable - @m.x1.xm215.msky130_fd_pr__nfet_01v8[ig]
Warning: unrecognized variable - @m.x1.xm215.msky130_fd_pr__nfet_01v8[ib]
Warning: unrecognized variable - @m.x1.xm216.msky130_fd_pr__nfet_01v8[is]
Warning: unrecognized variable - @m.x1.xm216.msky130_fd_pr__nfet_01v8[ig]
Warning: unrecognized variable - @m.x1.xm216.msky130_fd_pr__nfet_01v8[ib]
Warning: unrecognized variable - @m.x1.xm217.msky130_fd_pr__nfet_01v8[is]
Warning: unrecognized variable - @m.x1.xm217.msky130_fd_pr__nfet_01v8[ig]
Warning: unrecognized variable - @m.x1.xm217.msky130_fd_pr__nfet_01v8[ib]
Warning: unrecognized variable - @m.x1.xm218.msky130_fd_pr__nfet_01v8[is]
Warning: unrecognized variable - @m.x1.xm218.msky130_fd_pr__nfet_01v8[ig]
Warning: unrecognized variable - @m.x1.xm218.msky130_fd_pr__nfet_01v8[ib]
Warning: unrecognized variable - @m.x1.xm219.msky130_fd_pr__nfet_01v8[is]
Warning: unrecognized variable - @m.x1.xm219.msky130_fd_pr__nfet_01v8[ig]
Warning: unrecognized variable - @m.x1.xm219.msky130_fd_pr__nfet_01v8[ib]
Warning: unrecognized variable - @m.x1.xm220.msky130_fd_pr__nfet_01v8[is]
Warning: unrecognized variable - @m.x1.xm220.msky130_fd_pr__nfet_01v8[ig]
Warning: unrecognized variable - @m.x1.xm220.msky130_fd_pr__nfet_01v8[ib]
Warning: unrecognized variable - @m.x1.xm221.msky130_fd_pr__nfet_01v8[is]
Warning: unrecognized variable - @m.x1.xm221.msky130_fd_pr__nfet_01v8[ig]
Warning: unrecognized variable - @m.x1.xm221.msky130_fd_pr__nfet_01v8[ib]
Warning: unrecognized variable - @m.x1.xm222.msky130_fd_pr__nfet_01v8[is]
Warning: unrecognized variable - @m.x1.xm222.msky130_fd_pr__nfet_01v8[ig]
Warning: unrecognized variable - @m.x1.xm222.msky130_fd_pr__nfet_01v8[ib]
Warning: unrecognized variable - @m.x1.xm223.msky130_fd_pr__nfet_01v8[is]
Warning: unrecognized variable - @m.x1.xm223.msky130_fd_pr__nfet_01v8[ig]
Warning: unrecognized variable - @m.x1.xm223.msky130_fd_pr__nfet_01v8[ib]
Warning: unrecognized variable - @m.x1.xm224.msky130_fd_pr__nfet_01v8[is]
Warning: unrecognized variable - @m.x1.xm224.msky130_fd_pr__nfet_01v8[ig]
Warning: unrecognized variable - @m.x1.xm224.msky130_fd_pr__nfet_01v8[ib]
Warning: unrecognized variable - @m.x1.xm225.msky130_fd_pr__nfet_01v8[is]
Warning: unrecognized variable - @m.x1.xm225.msky130_fd_pr__nfet_01v8[ig]
Warning: unrecognized variable - @m.x1.xm225.msky130_fd_pr__nfet_01v8[ib]
Warning: unrecognized variable - @m.x1.xm226.msky130_fd_pr__nfet_01v8[is]
Warning: unrecognized variable - @m.x1.xm226.msky130_fd_pr__nfet_01v8[ig]
Warning: unrecognized variable - @m.x1.xm226.msky130_fd_pr__nfet_01v8[ib]
Warning: unrecognized variable - @m.x1.xm227.msky130_fd_pr__nfet_01v8[is]
Warning: unrecognized variable - @m.x1.xm227.msky130_fd_pr__nfet_01v8[ig]
Warning: unrecognized variable - @m.x1.xm227.msky130_fd_pr__nfet_01v8[ib]
Warning: unrecognized variable - @m.x1.xm228.msky130_fd_pr__nfet_01v8[is]
Warning: unrecognized variable - @m.x1.xm228.msky130_fd_pr__nfet_01v8[ig]
Warning: unrecognized variable - @m.x1.xm228.msky130_fd_pr__nfet_01v8[ib]
Warning: unrecognized variable - @m.x1.xm229.msky130_fd_pr__nfet_01v8[is]
Warning: unrecognized variable - @m.x1.xm229.msky130_fd_pr__nfet_01v8[ig]
Warning: unrecognized variable - @m.x1.xm229.msky130_fd_pr__nfet_01v8[ib]
Warning: unrecognized variable - @m.x1.xm230.msky130_fd_pr__nfet_01v8[is]
Warning: unrecognized variable - @m.x1.xm230.msky130_fd_pr__nfet_01v8[ig]
Warning: unrecognized variable - @m.x1.xm230.msky130_fd_pr__nfet_01v8[ib]
Warning: unrecognized variable - @m.x1.xm231.msky130_fd_pr__nfet_01v8[is]
Warning: unrecognized variable - @m.x1.xm231.msky130_fd_pr__nfet_01v8[ig]
Warning: unrecognized variable - @m.x1.xm231.msky130_fd_pr__nfet_01v8[ib]
Warning: unrecognized variable - @m.x1.xm232.msky130_fd_pr__nfet_01v8[is]
Warning: unrecognized variable - @m.x1.xm232.msky130_fd_pr__nfet_01v8[ig]
Warning: unrecognized variable - @m.x1.xm232.msky130_fd_pr__nfet_01v8[ib]
Warning: unrecognized variable - @m.x1.xm233.msky130_fd_pr__nfet_01v8[is]
Warning: unrecognized variable - @m.x1.xm233.msky130_fd_pr__nfet_01v8[ig]
Warning: unrecognized variable - @m.x1.xm233.msky130_fd_pr__nfet_01v8[ib]
Warning: unrecognized variable - @m.x1.xm234.msky130_fd_pr__nfet_01v8[is]
Warning: unrecognized variable - @m.x1.xm234.msky130_fd_pr__nfet_01v8[ig]
Warning: unrecognized variable - @m.x1.xm234.msky130_fd_pr__nfet_01v8[ib]
Warning: unrecognized variable - @m.x1.xm235.msky130_fd_pr__nfet_01v8[is]
Warning: unrecognized variable - @m.x1.xm235.msky130_fd_pr__nfet_01v8[ig]
Warning: unrecognized variable - @m.x1.xm235.msky130_fd_pr__nfet_01v8[ib]
Warning: unrecognized variable - @m.x1.xm236.msky130_fd_pr__nfet_01v8[is]
Warning: unrecognized variable - @m.x1.xm236.msky130_fd_pr__nfet_01v8[ig]
Warning: unrecognized variable - @m.x1.xm236.msky130_fd_pr__nfet_01v8[ib]
Warning: unrecognized variable - @m.x1.xm237.msky130_fd_pr__nfet_01v8[is]
Warning: unrecognized variable - @m.x1.xm237.msky130_fd_pr__nfet_01v8[ig]
Warning: unrecognized variable - @m.x1.xm237.msky130_fd_pr__nfet_01v8[ib]
Warning: unrecognized variable - @m.x1.xm238.msky130_fd_pr__nfet_01v8[is]
Warning: unrecognized variable - @m.x1.xm238.msky130_fd_pr__nfet_01v8[ig]
Warning: unrecognized variable - @m.x1.xm238.msky130_fd_pr__nfet_01v8[ib]
Warning: unrecognized variable - @m.x1.xm239.msky130_fd_pr__nfet_01v8[is]
Warning: unrecognized variable - @m.x1.xm239.msky130_fd_pr__nfet_01v8[ig]
Warning: unrecognized variable - @m.x1.xm239.msky130_fd_pr__nfet_01v8[ib]
Warning: unrecognized variable - @m.x1.xm240.msky130_fd_pr__nfet_01v8[is]
Warning: unrecognized variable - @m.x1.xm240.msky130_fd_pr__nfet_01v8[ig]
Warning: unrecognized variable - @m.x1.xm240.msky130_fd_pr__nfet_01v8[ib]
Warning: unrecognized variable - @m.x1.xm241.msky130_fd_pr__nfet_01v8[is]
Warning: unrecognized variable - @m.x1.xm241.msky130_fd_pr__nfet_01v8[ig]
Warning: unrecognized variable - @m.x1.xm241.msky130_fd_pr__nfet_01v8[ib]
Warning: unrecognized variable - @m.x1.xm242.msky130_fd_pr__nfet_01v8[is]
Warning: unrecognized variable - @m.x1.xm242.msky130_fd_pr__nfet_01v8[ig]
Warning: unrecognized variable - @m.x1.xm242.msky130_fd_pr__nfet_01v8[ib]
Warning: unrecognized variable - @m.x1.xm243.msky130_fd_pr__nfet_01v8[is]
Warning: unrecognized variable - @m.x1.xm243.msky130_fd_pr__nfet_01v8[ig]
Warning: unrecognized variable - @m.x1.xm243.msky130_fd_pr__nfet_01v8[ib]
Warning: unrecognized variable - @m.x1.xm244.msky130_fd_pr__nfet_01v8[is]
Warning: unrecognized variable - @m.x1.xm244.msky130_fd_pr__nfet_01v8[ig]
Warning: unrecognized variable - @m.x1.xm244.msky130_fd_pr__nfet_01v8[ib]
Warning: unrecognized variable - @m.x1.xm245.msky130_fd_pr__nfet_01v8[is]
Warning: unrecognized variable - @m.x1.xm245.msky130_fd_pr__nfet_01v8[ig]
Warning: unrecognized variable - @m.x1.xm245.msky130_fd_pr__nfet_01v8[ib]
Warning: unrecognized variable - @m.x1.xm246.msky130_fd_pr__nfet_01v8[is]
Warning: unrecognized variable - @m.x1.xm246.msky130_fd_pr__nfet_01v8[ig]
Warning: unrecognized variable - @m.x1.xm246.msky130_fd_pr__nfet_01v8[ib]
Warning: unrecognized variable - @m.x1.xm247.msky130_fd_pr__nfet_01v8[is]
Warning: unrecognized variable - @m.x1.xm247.msky130_fd_pr__nfet_01v8[ig]
Warning: unrecognized variable - @m.x1.xm247.msky130_fd_pr__nfet_01v8[ib]
Warning: unrecognized variable - @m.x1.xm248.msky130_fd_pr__nfet_01v8[is]
Warning: unrecognized variable - @m.x1.xm248.msky130_fd_pr__nfet_01v8[ig]
Warning: unrecognized variable - @m.x1.xm248.msky130_fd_pr__nfet_01v8[ib]
Warning: unrecognized variable - @m.x1.xm249.msky130_fd_pr__nfet_01v8[is]
Warning: unrecognized variable - @m.x1.xm249.msky130_fd_pr__nfet_01v8[ig]
Warning: unrecognized variable - @m.x1.xm249.msky130_fd_pr__nfet_01v8[ib]
Warning: unrecognized variable - @m.x1.xm250.msky130_fd_pr__nfet_01v8[is]
Warning: unrecognized variable - @m.x1.xm250.msky130_fd_pr__nfet_01v8[ig]
Warning: unrecognized variable - @m.x1.xm250.msky130_fd_pr__nfet_01v8[ib]
Warning: unrecognized variable - @m.x1.xm251.msky130_fd_pr__nfet_01v8[is]
Warning: unrecognized variable - @m.x1.xm251.msky130_fd_pr__nfet_01v8[ig]
Warning: unrecognized variable - @m.x1.xm251.msky130_fd_pr__nfet_01v8[ib]
Warning: unrecognized variable - @m.x1.xm252.msky130_fd_pr__nfet_01v8[is]
Warning: unrecognized variable - @m.x1.xm252.msky130_fd_pr__nfet_01v8[ig]
Warning: unrecognized variable - @m.x1.xm252.msky130_fd_pr__nfet_01v8[ib]
Warning: unrecognized variable - @m.x1.xm253.msky130_fd_pr__nfet_01v8[is]
Warning: unrecognized variable - @m.x1.xm253.msky130_fd_pr__nfet_01v8[ig]
Warning: unrecognized variable - @m.x1.xm253.msky130_fd_pr__nfet_01v8[ib]
Warning: unrecognized variable - @m.x1.xm254.msky130_fd_pr__nfet_01v8[is]
Warning: unrecognized variable - @m.x1.xm254.msky130_fd_pr__nfet_01v8[ig]
Warning: unrecognized variable - @m.x1.xm254.msky130_fd_pr__nfet_01v8[ib]
Warning: unrecognized variable - @m.x1.xm255.msky130_fd_pr__nfet_01v8[is]
Warning: unrecognized variable - @m.x1.xm255.msky130_fd_pr__nfet_01v8[ig]
Warning: unrecognized variable - @m.x1.xm255.msky130_fd_pr__nfet_01v8[ib]
Warning: unrecognized variable - @m.x1.xm256.msky130_fd_pr__nfet_01v8[is]
Warning: unrecognized variable - @m.x1.xm256.msky130_fd_pr__nfet_01v8[ig]
Warning: unrecognized variable - @m.x1.xm256.msky130_fd_pr__nfet_01v8[ib]
Warning: unrecognized variable - @m.x1.xm257.msky130_fd_pr__nfet_01v8[is]
Warning: unrecognized variable - @m.x1.xm257.msky130_fd_pr__nfet_01v8[ig]
Warning: unrecognized variable - @m.x1.xm257.msky130_fd_pr__nfet_01v8[ib]
Warning: unrecognized variable - @m.x1.xm258.msky130_fd_pr__nfet_01v8[is]
Warning: unrecognized variable - @m.x1.xm258.msky130_fd_pr__nfet_01v8[ig]
Warning: unrecognized variable - @m.x1.xm258.msky130_fd_pr__nfet_01v8[ib]
Warning: unrecognized variable - @m.x1.xm259.msky130_fd_pr__nfet_01v8[is]
Warning: unrecognized variable - @m.x1.xm259.msky130_fd_pr__nfet_01v8[ig]
Warning: unrecognized variable - @m.x1.xm259.msky130_fd_pr__nfet_01v8[ib]
Warning: unrecognized variable - @m.x1.xm260.msky130_fd_pr__nfet_01v8[is]
Warning: unrecognized variable - @m.x1.xm260.msky130_fd_pr__nfet_01v8[ig]
Warning: unrecognized variable - @m.x1.xm260.msky130_fd_pr__nfet_01v8[ib]
Warning: unrecognized variable - @m.x1.xm261.msky130_fd_pr__nfet_01v8[is]
Warning: unrecognized variable - @m.x1.xm261.msky130_fd_pr__nfet_01v8[ig]
Warning: unrecognized variable - @m.x1.xm261.msky130_fd_pr__nfet_01v8[ib]
Warning: unrecognized variable - @m.x1.xm262.msky130_fd_pr__nfet_01v8[is]
Warning: unrecognized variable - @m.x1.xm262.msky130_fd_pr__nfet_01v8[ig]
Warning: unrecognized variable - @m.x1.xm262.msky130_fd_pr__nfet_01v8[ib]
Warning: unrecognized variable - @m.x1.xm263.msky130_fd_pr__nfet_01v8[is]
Warning: unrecognized variable - @m.x1.xm263.msky130_fd_pr__nfet_01v8[ig]
Warning: unrecognized variable - @m.x1.xm263.msky130_fd_pr__nfet_01v8[ib]
Warning: unrecognized variable - @m.x1.xm264.msky130_fd_pr__nfet_01v8[is]
Warning: unrecognized variable - @m.x1.xm264.msky130_fd_pr__nfet_01v8[ig]
Warning: unrecognized variable - @m.x1.xm264.msky130_fd_pr__nfet_01v8[ib]
Warning: unrecognized variable - @m.x1.xm265.msky130_fd_pr__nfet_01v8[is]
Warning: unrecognized variable - @m.x1.xm265.msky130_fd_pr__nfet_01v8[ig]
Warning: unrecognized variable - @m.x1.xm265.msky130_fd_pr__nfet_01v8[ib]
Warning: unrecognized variable - @m.x1.xm266.msky130_fd_pr__nfet_01v8[is]
Warning: unrecognized variable - @m.x1.xm266.msky130_fd_pr__nfet_01v8[ig]
Warning: unrecognized variable - @m.x1.xm266.msky130_fd_pr__nfet_01v8[ib]
Warning: unrecognized variable - @m.x1.xm267.msky130_fd_pr__nfet_01v8[is]
Warning: unrecognized variable - @m.x1.xm267.msky130_fd_pr__nfet_01v8[ig]
Warning: unrecognized variable - @m.x1.xm267.msky130_fd_pr__nfet_01v8[ib]
Warning: unrecognized variable - @m.x1.xm268.msky130_fd_pr__nfet_01v8[is]
Warning: unrecognized variable - @m.x1.xm268.msky130_fd_pr__nfet_01v8[ig]
Warning: unrecognized variable - @m.x1.xm268.msky130_fd_pr__nfet_01v8[ib]
Warning: unrecognized variable - @m.x1.xm269.msky130_fd_pr__nfet_01v8[is]
Warning: unrecognized variable - @m.x1.xm269.msky130_fd_pr__nfet_01v8[ig]
Warning: unrecognized variable - @m.x1.xm269.msky130_fd_pr__nfet_01v8[ib]
Warning: unrecognized variable - @m.x1.xm270.msky130_fd_pr__nfet_01v8[is]
Warning: unrecognized variable - @m.x1.xm270.msky130_fd_pr__nfet_01v8[ig]
Warning: unrecognized variable - @m.x1.xm270.msky130_fd_pr__nfet_01v8[ib]
Warning: unrecognized variable - @m.x1.xm271.msky130_fd_pr__nfet_01v8[is]
Warning: unrecognized variable - @m.x1.xm271.msky130_fd_pr__nfet_01v8[ig]
Warning: unrecognized variable - @m.x1.xm271.msky130_fd_pr__nfet_01v8[ib]
Warning: unrecognized variable - @m.x1.xm272.msky130_fd_pr__nfet_01v8[is]
Warning: unrecognized variable - @m.x1.xm272.msky130_fd_pr__nfet_01v8[ig]
Warning: unrecognized variable - @m.x1.xm272.msky130_fd_pr__nfet_01v8[ib]
Warning: unrecognized variable - @m.x1.xm273.msky130_fd_pr__nfet_01v8[is]
Warning: unrecognized variable - @m.x1.xm273.msky130_fd_pr__nfet_01v8[ig]
Warning: unrecognized variable - @m.x1.xm273.msky130_fd_pr__nfet_01v8[ib]
Warning: unrecognized variable - @m.x1.xm274.msky130_fd_pr__nfet_01v8[is]
Warning: unrecognized variable - @m.x1.xm274.msky130_fd_pr__nfet_01v8[ig]
Warning: unrecognized variable - @m.x1.xm274.msky130_fd_pr__nfet_01v8[ib]
Warning: unrecognized variable - @m.x1.xm275.msky130_fd_pr__nfet_01v8[is]
Warning: unrecognized variable - @m.x1.xm275.msky130_fd_pr__nfet_01v8[ig]
Warning: unrecognized variable - @m.x1.xm275.msky130_fd_pr__nfet_01v8[ib]
Warning: unrecognized variable - @m.x1.xm276.msky130_fd_pr__nfet_01v8[is]
Warning: unrecognized variable - @m.x1.xm276.msky130_fd_pr__nfet_01v8[ig]
Warning: unrecognized variable - @m.x1.xm276.msky130_fd_pr__nfet_01v8[ib]
Warning: unrecognized variable - @m.x1.xm277.msky130_fd_pr__nfet_01v8[is]
Warning: unrecognized variable - @m.x1.xm277.msky130_fd_pr__nfet_01v8[ig]
Warning: unrecognized variable - @m.x1.xm277.msky130_fd_pr__nfet_01v8[ib]
Warning: unrecognized variable - @m.x1.xm278.msky130_fd_pr__nfet_01v8[is]
Warning: unrecognized variable - @m.x1.xm278.msky130_fd_pr__nfet_01v8[ig]
Warning: unrecognized variable - @m.x1.xm278.msky130_fd_pr__nfet_01v8[ib]
Warning: unrecognized variable - @m.x1.xm279.msky130_fd_pr__nfet_01v8[is]
Warning: unrecognized variable - @m.x1.xm279.msky130_fd_pr__nfet_01v8[ig]
Warning: unrecognized variable - @m.x1.xm279.msky130_fd_pr__nfet_01v8[ib]
Warning: unrecognized variable - @m.x1.xm280.msky130_fd_pr__nfet_01v8[is]
Warning: unrecognized variable - @m.x1.xm280.msky130_fd_pr__nfet_01v8[ig]
Warning: unrecognized variable - @m.x1.xm280.msky130_fd_pr__nfet_01v8[ib]
Warning: unrecognized variable - @m.x1.xm281.msky130_fd_pr__nfet_01v8[is]
Warning: unrecognized variable - @m.x1.xm281.msky130_fd_pr__nfet_01v8[ig]
Warning: unrecognized variable - @m.x1.xm281.msky130_fd_pr__nfet_01v8[ib]
Warning: unrecognized variable - @m.x1.xm282.msky130_fd_pr__nfet_01v8[is]
Warning: unrecognized variable - @m.x1.xm282.msky130_fd_pr__nfet_01v8[ig]
Warning: unrecognized variable - @m.x1.xm282.msky130_fd_pr__nfet_01v8[ib]
Warning: unrecognized variable - @m.x1.xm283.msky130_fd_pr__nfet_01v8[is]
Warning: unrecognized variable - @m.x1.xm283.msky130_fd_pr__nfet_01v8[ig]
Warning: unrecognized variable - @m.x1.xm283.msky130_fd_pr__nfet_01v8[ib]
Warning: unrecognized variable - @m.x1.xm284.msky130_fd_pr__nfet_01v8[is]
Warning: unrecognized variable - @m.x1.xm284.msky130_fd_pr__nfet_01v8[ig]
Warning: unrecognized variable - @m.x1.xm284.msky130_fd_pr__nfet_01v8[ib]
Warning: unrecognized variable - @m.x1.xm285.msky130_fd_pr__nfet_01v8[is]
Warning: unrecognized variable - @m.x1.xm285.msky130_fd_pr__nfet_01v8[ig]
Warning: unrecognized variable - @m.x1.xm285.msky130_fd_pr__nfet_01v8[ib]
Warning: unrecognized variable - @m.x1.xm286.msky130_fd_pr__nfet_01v8[is]
Warning: unrecognized variable - @m.x1.xm286.msky130_fd_pr__nfet_01v8[ig]
Warning: unrecognized variable - @m.x1.xm286.msky130_fd_pr__nfet_01v8[ib]
Warning: unrecognized variable - @m.x1.xm287.msky130_fd_pr__nfet_01v8[is]
Warning: unrecognized variable - @m.x1.xm287.msky130_fd_pr__nfet_01v8[ig]
Warning: unrecognized variable - @m.x1.xm287.msky130_fd_pr__nfet_01v8[ib]
Warning: unrecognized variable - @m.x1.xm288.msky130_fd_pr__nfet_01v8[is]
Warning: unrecognized variable - @m.x1.xm288.msky130_fd_pr__nfet_01v8[ig]
Warning: unrecognized variable - @m.x1.xm288.msky130_fd_pr__nfet_01v8[ib]
Warning: unrecognized variable - @m.x1.xm289.msky130_fd_pr__nfet_01v8[is]
Warning: unrecognized variable - @m.x1.xm289.msky130_fd_pr__nfet_01v8[ig]
Warning: unrecognized variable - @m.x1.xm289.msky130_fd_pr__nfet_01v8[ib]
Warning: unrecognized variable - @m.x1.xm290.msky130_fd_pr__nfet_01v8[is]
Warning: unrecognized variable - @m.x1.xm290.msky130_fd_pr__nfet_01v8[ig]
Warning: unrecognized variable - @m.x1.xm290.msky130_fd_pr__nfet_01v8[ib]
Warning: unrecognized variable - @m.x1.xm291.msky130_fd_pr__nfet_01v8[is]
Warning: unrecognized variable - @m.x1.xm291.msky130_fd_pr__nfet_01v8[ig]
Warning: unrecognized variable - @m.x1.xm291.msky130_fd_pr__nfet_01v8[ib]
Warning: unrecognized variable - @m.x1.xm292.msky130_fd_pr__nfet_01v8[is]
Warning: unrecognized variable - @m.x1.xm292.msky130_fd_pr__nfet_01v8[ig]
Warning: unrecognized variable - @m.x1.xm292.msky130_fd_pr__nfet_01v8[ib]
Warning: unrecognized variable - @m.x1.xm293.msky130_fd_pr__nfet_01v8[is]
Warning: unrecognized variable - @m.x1.xm293.msky130_fd_pr__nfet_01v8[ig]
Warning: unrecognized variable - @m.x1.xm293.msky130_fd_pr__nfet_01v8[ib]
Warning: unrecognized variable - @m.x1.xm294.msky130_fd_pr__nfet_01v8[is]
Warning: unrecognized variable - @m.x1.xm294.msky130_fd_pr__nfet_01v8[ig]
Warning: unrecognized variable - @m.x1.xm294.msky130_fd_pr__nfet_01v8[ib]
Warning: unrecognized variable - @m.x1.xm295.msky130_fd_pr__nfet_01v8[is]
Warning: unrecognized variable - @m.x1.xm295.msky130_fd_pr__nfet_01v8[ig]
Warning: unrecognized variable - @m.x1.xm295.msky130_fd_pr__nfet_01v8[ib]
Warning: unrecognized variable - @m.x1.xm296.msky130_fd_pr__nfet_01v8[is]
Warning: unrecognized variable - @m.x1.xm296.msky130_fd_pr__nfet_01v8[ig]
Warning: unrecognized variable - @m.x1.xm296.msky130_fd_pr__nfet_01v8[ib]
Warning: unrecognized variable - @m.x1.xm297.msky130_fd_pr__nfet_01v8[is]
Warning: unrecognized variable - @m.x1.xm297.msky130_fd_pr__nfet_01v8[ig]
Warning: unrecognized variable - @m.x1.xm297.msky130_fd_pr__nfet_01v8[ib]
Warning: unrecognized variable - @m.x1.xm298.msky130_fd_pr__nfet_01v8[is]
Warning: unrecognized variable - @m.x1.xm298.msky130_fd_pr__nfet_01v8[ig]
Warning: unrecognized variable - @m.x1.xm298.msky130_fd_pr__nfet_01v8[ib]
Warning: unrecognized variable - @m.x1.xm299.msky130_fd_pr__nfet_01v8[is]
Warning: unrecognized variable - @m.x1.xm299.msky130_fd_pr__nfet_01v8[ig]
Warning: unrecognized variable - @m.x1.xm299.msky130_fd_pr__nfet_01v8[ib]
Warning: unrecognized variable - @m.x1.xm300.msky130_fd_pr__nfet_01v8[is]
Warning: unrecognized variable - @m.x1.xm300.msky130_fd_pr__nfet_01v8[ig]
Warning: unrecognized variable - @m.x1.xm300.msky130_fd_pr__nfet_01v8[ib]
Warning: unrecognized variable - @m.x1.xm301.msky130_fd_pr__nfet_01v8[is]
Warning: unrecognized variable - @m.x1.xm301.msky130_fd_pr__nfet_01v8[ig]
Warning: unrecognized variable - @m.x1.xm301.msky130_fd_pr__nfet_01v8[ib]
Warning: unrecognized variable - @m.x1.xm302.msky130_fd_pr__nfet_01v8[is]
Warning: unrecognized variable - @m.x1.xm302.msky130_fd_pr__nfet_01v8[ig]
Warning: unrecognized variable - @m.x1.xm302.msky130_fd_pr__nfet_01v8[ib]
Warning: unrecognized variable - @m.x1.xm303.msky130_fd_pr__nfet_01v8[is]
Warning: unrecognized variable - @m.x1.xm303.msky130_fd_pr__nfet_01v8[ig]
Warning: unrecognized variable - @m.x1.xm303.msky130_fd_pr__nfet_01v8[ib]
Warning: unrecognized variable - @m.x1.xm304.msky130_fd_pr__nfet_01v8[is]
Warning: unrecognized variable - @m.x1.xm304.msky130_fd_pr__nfet_01v8[ig]
Warning: unrecognized variable - @m.x1.xm304.msky130_fd_pr__nfet_01v8[ib]
Warning: unrecognized variable - @m.x1.xm305.msky130_fd_pr__nfet_01v8[is]
Warning: unrecognized variable - @m.x1.xm305.msky130_fd_pr__nfet_01v8[ig]
Warning: unrecognized variable - @m.x1.xm305.msky130_fd_pr__nfet_01v8[ib]
Warning: unrecognized variable - @m.x1.xm306.msky130_fd_pr__nfet_01v8[is]
Warning: unrecognized variable - @m.x1.xm306.msky130_fd_pr__nfet_01v8[ig]
Warning: unrecognized variable - @m.x1.xm306.msky130_fd_pr__nfet_01v8[ib]
Warning: unrecognized variable - @m.x1.xm307.msky130_fd_pr__nfet_01v8[is]
Warning: unrecognized variable - @m.x1.xm307.msky130_fd_pr__nfet_01v8[ig]
Warning: unrecognized variable - @m.x1.xm307.msky130_fd_pr__nfet_01v8[ib]
Warning: unrecognized variable - @m.x1.xm308.msky130_fd_pr__nfet_01v8[is]
Warning: unrecognized variable - @m.x1.xm308.msky130_fd_pr__nfet_01v8[ig]
Warning: unrecognized variable - @m.x1.xm308.msky130_fd_pr__nfet_01v8[ib]
Warning: unrecognized variable - @m.x1.xm309.msky130_fd_pr__nfet_01v8[is]
Warning: unrecognized variable - @m.x1.xm309.msky130_fd_pr__nfet_01v8[ig]
Warning: unrecognized variable - @m.x1.xm309.msky130_fd_pr__nfet_01v8[ib]
Warning: unrecognized variable - @m.x1.xm310.msky130_fd_pr__nfet_01v8[is]
Warning: unrecognized variable - @m.x1.xm310.msky130_fd_pr__nfet_01v8[ig]
Warning: unrecognized variable - @m.x1.xm310.msky130_fd_pr__nfet_01v8[ib]
Warning: unrecognized variable - @m.x1.xm311.msky130_fd_pr__nfet_01v8[is]
Warning: unrecognized variable - @m.x1.xm311.msky130_fd_pr__nfet_01v8[ig]
Warning: unrecognized variable - @m.x1.xm311.msky130_fd_pr__nfet_01v8[ib]
Warning: unrecognized variable - @m.x1.xm312.msky130_fd_pr__nfet_01v8[is]
Warning: unrecognized variable - @m.x1.xm312.msky130_fd_pr__nfet_01v8[ig]
Warning: unrecognized variable - @m.x1.xm312.msky130_fd_pr__nfet_01v8[ib]
Warning: unrecognized variable - @m.x1.xm313.msky130_fd_pr__nfet_01v8[is]
Warning: unrecognized variable - @m.x1.xm313.msky130_fd_pr__nfet_01v8[ig]
Warning: unrecognized variable - @m.x1.xm313.msky130_fd_pr__nfet_01v8[ib]
Warning: unrecognized variable - @m.x1.xm314.msky130_fd_pr__nfet_01v8[is]
Warning: unrecognized variable - @m.x1.xm314.msky130_fd_pr__nfet_01v8[ig]
Warning: unrecognized variable - @m.x1.xm314.msky130_fd_pr__nfet_01v8[ib]
Warning: unrecognized variable - @m.x1.xm315.msky130_fd_pr__nfet_01v8[is]
Warning: unrecognized variable - @m.x1.xm315.msky130_fd_pr__nfet_01v8[ig]
Warning: unrecognized variable - @m.x1.xm315.msky130_fd_pr__nfet_01v8[ib]
Warning: unrecognized variable - @m.x1.xm316.msky130_fd_pr__nfet_01v8[is]
Warning: unrecognized variable - @m.x1.xm316.msky130_fd_pr__nfet_01v8[ig]
Warning: unrecognized variable - @m.x1.xm316.msky130_fd_pr__nfet_01v8[ib]
Warning: unrecognized variable - @m.x1.xm317.msky130_fd_pr__nfet_01v8[is]
Warning: unrecognized variable - @m.x1.xm317.msky130_fd_pr__nfet_01v8[ig]
Warning: unrecognized variable - @m.x1.xm317.msky130_fd_pr__nfet_01v8[ib]
Warning: unrecognized variable - @m.x1.xm318.msky130_fd_pr__nfet_01v8[is]
Warning: unrecognized variable - @m.x1.xm318.msky130_fd_pr__nfet_01v8[ig]
Warning: unrecognized variable - @m.x1.xm318.msky130_fd_pr__nfet_01v8[ib]
Warning: unrecognized variable - @m.x1.xm319.msky130_fd_pr__nfet_01v8[is]
Warning: unrecognized variable - @m.x1.xm319.msky130_fd_pr__nfet_01v8[ig]
Warning: unrecognized variable - @m.x1.xm319.msky130_fd_pr__nfet_01v8[ib]
Warning: unrecognized variable - @m.x1.xm320.msky130_fd_pr__nfet_01v8[is]
Warning: unrecognized variable - @m.x1.xm320.msky130_fd_pr__nfet_01v8[ig]
Warning: unrecognized variable - @m.x1.xm320.msky130_fd_pr__nfet_01v8[ib]
Warning: unrecognized variable - @m.x1.xm321.msky130_fd_pr__nfet_01v8[is]
Warning: unrecognized variable - @m.x1.xm321.msky130_fd_pr__nfet_01v8[ig]
Warning: unrecognized variable - @m.x1.xm321.msky130_fd_pr__nfet_01v8[ib]
Warning: unrecognized variable - @m.x1.xm322.msky130_fd_pr__nfet_01v8[is]
Warning: unrecognized variable - @m.x1.xm322.msky130_fd_pr__nfet_01v8[ig]
Warning: unrecognized variable - @m.x1.xm322.msky130_fd_pr__nfet_01v8[ib]
Warning: unrecognized variable - @m.x1.xm323.msky130_fd_pr__nfet_01v8[is]
Warning: unrecognized variable - @m.x1.xm323.msky130_fd_pr__nfet_01v8[ig]
Warning: unrecognized variable - @m.x1.xm323.msky130_fd_pr__nfet_01v8[ib]
Warning: unrecognized variable - @m.x1.xm324.msky130_fd_pr__nfet_01v8[is]
Warning: unrecognized variable - @m.x1.xm324.msky130_fd_pr__nfet_01v8[ig]
Warning: unrecognized variable - @m.x1.xm324.msky130_fd_pr__nfet_01v8[ib]
Warning: unrecognized variable - @m.x1.xm325.msky130_fd_pr__nfet_01v8[is]
Warning: unrecognized variable - @m.x1.xm325.msky130_fd_pr__nfet_01v8[ig]
Warning: unrecognized variable - @m.x1.xm325.msky130_fd_pr__nfet_01v8[ib]
Warning: unrecognized variable - @m.x1.xm326.msky130_fd_pr__nfet_01v8[is]
Warning: unrecognized variable - @m.x1.xm326.msky130_fd_pr__nfet_01v8[ig]
Warning: unrecognized variable - @m.x1.xm326.msky130_fd_pr__nfet_01v8[ib]
Warning: unrecognized variable - @m.x1.xm327.msky130_fd_pr__nfet_01v8[is]
Warning: unrecognized variable - @m.x1.xm327.msky130_fd_pr__nfet_01v8[ig]
Warning: unrecognized variable - @m.x1.xm327.msky130_fd_pr__nfet_01v8[ib]
Warning: unrecognized variable - @m.x1.xm328.msky130_fd_pr__nfet_01v8[is]
Warning: unrecognized variable - @m.x1.xm328.msky130_fd_pr__nfet_01v8[ig]
Warning: unrecognized variable - @m.x1.xm328.msky130_fd_pr__nfet_01v8[ib]
Warning: unrecognized variable - @m.x1.xm329.msky130_fd_pr__nfet_01v8[is]
Warning: unrecognized variable - @m.x1.xm329.msky130_fd_pr__nfet_01v8[ig]
Warning: unrecognized variable - @m.x1.xm329.msky130_fd_pr__nfet_01v8[ib]
Warning: unrecognized variable - @m.x1.xm330.msky130_fd_pr__nfet_01v8[is]
Warning: unrecognized variable - @m.x1.xm330.msky130_fd_pr__nfet_01v8[ig]
Warning: unrecognized variable - @m.x1.xm330.msky130_fd_pr__nfet_01v8[ib]
Warning: unrecognized variable - @m.x1.xm331.msky130_fd_pr__nfet_01v8[is]
Warning: unrecognized variable - @m.x1.xm331.msky130_fd_pr__nfet_01v8[ig]
Warning: unrecognized variable - @m.x1.xm331.msky130_fd_pr__nfet_01v8[ib]
Warning: unrecognized variable - @m.x1.xm332.msky130_fd_pr__nfet_01v8[is]
Warning: unrecognized variable - @m.x1.xm332.msky130_fd_pr__nfet_01v8[ig]
Warning: unrecognized variable - @m.x1.xm332.msky130_fd_pr__nfet_01v8[ib]
Warning: unrecognized variable - @m.x1.xm333.msky130_fd_pr__nfet_01v8[is]
Warning: unrecognized variable - @m.x1.xm333.msky130_fd_pr__nfet_01v8[ig]
Warning: unrecognized variable - @m.x1.xm333.msky130_fd_pr__nfet_01v8[ib]
Warning: unrecognized variable - @m.x1.xm334.msky130_fd_pr__nfet_01v8[is]
Warning: unrecognized variable - @m.x1.xm334.msky130_fd_pr__nfet_01v8[ig]
Warning: unrecognized variable - @m.x1.xm334.msky130_fd_pr__nfet_01v8[ib]
Warning: unrecognized variable - @m.x1.xm335.msky130_fd_pr__nfet_01v8[is]
Warning: unrecognized variable - @m.x1.xm335.msky130_fd_pr__nfet_01v8[ig]
Warning: unrecognized variable - @m.x1.xm335.msky130_fd_pr__nfet_01v8[ib]
Warning: unrecognized variable - @m.x1.xm336.msky130_fd_pr__nfet_01v8[is]
Warning: unrecognized variable - @m.x1.xm336.msky130_fd_pr__nfet_01v8[ig]
Warning: unrecognized variable - @m.x1.xm336.msky130_fd_pr__nfet_01v8[ib]
Warning: unrecognized variable - @m.x1.xm337.msky130_fd_pr__nfet_01v8[is]
Warning: unrecognized variable - @m.x1.xm337.msky130_fd_pr__nfet_01v8[ig]
Warning: unrecognized variable - @m.x1.xm337.msky130_fd_pr__nfet_01v8[ib]
Warning: unrecognized variable - @m.x1.xm338.msky130_fd_pr__nfet_01v8[is]
Warning: unrecognized variable - @m.x1.xm338.msky130_fd_pr__nfet_01v8[ig]
Warning: unrecognized variable - @m.x1.xm338.msky130_fd_pr__nfet_01v8[ib]
Warning: unrecognized variable - @m.x1.xm339.msky130_fd_pr__nfet_01v8[is]
Warning: unrecognized variable - @m.x1.xm339.msky130_fd_pr__nfet_01v8[ig]
Warning: unrecognized variable - @m.x1.xm339.msky130_fd_pr__nfet_01v8[ib]
Warning: unrecognized variable - @m.x1.xm340.msky130_fd_pr__nfet_01v8[is]
Warning: unrecognized variable - @m.x1.xm340.msky130_fd_pr__nfet_01v8[ig]
Warning: unrecognized variable - @m.x1.xm340.msky130_fd_pr__nfet_01v8[ib]
Warning: unrecognized variable - @m.x1.xm341.msky130_fd_pr__nfet_01v8[is]
Warning: unrecognized variable - @m.x1.xm341.msky130_fd_pr__nfet_01v8[ig]
Warning: unrecognized variable - @m.x1.xm341.msky130_fd_pr__nfet_01v8[ib]
Warning: unrecognized variable - @m.x1.xm342.msky130_fd_pr__nfet_01v8[is]
Warning: unrecognized variable - @m.x1.xm342.msky130_fd_pr__nfet_01v8[ig]
Warning: unrecognized variable - @m.x1.xm342.msky130_fd_pr__nfet_01v8[ib]
Warning: unrecognized variable - @m.x1.xm343.msky130_fd_pr__nfet_01v8[is]
Warning: unrecognized variable - @m.x1.xm343.msky130_fd_pr__nfet_01v8[ig]
Warning: unrecognized variable - @m.x1.xm343.msky130_fd_pr__nfet_01v8[ib]
Warning: unrecognized variable - @m.x1.xm344.msky130_fd_pr__nfet_01v8[is]
Warning: unrecognized variable - @m.x1.xm344.msky130_fd_pr__nfet_01v8[ig]
Warning: unrecognized variable - @m.x1.xm344.msky130_fd_pr__nfet_01v8[ib]
Warning: unrecognized variable - @m.x1.xm345.msky130_fd_pr__nfet_01v8[is]
Warning: unrecognized variable - @m.x1.xm345.msky130_fd_pr__nfet_01v8[ig]
Warning: unrecognized variable - @m.x1.xm345.msky130_fd_pr__nfet_01v8[ib]
Warning: unrecognized variable - @m.x1.xm346.msky130_fd_pr__nfet_01v8[is]
Warning: unrecognized variable - @m.x1.xm346.msky130_fd_pr__nfet_01v8[ig]
Warning: unrecognized variable - @m.x1.xm346.msky130_fd_pr__nfet_01v8[ib]
Warning: unrecognized variable - @m.x1.xm347.msky130_fd_pr__nfet_01v8[is]
Warning: unrecognized variable - @m.x1.xm347.msky130_fd_pr__nfet_01v8[ig]
Warning: unrecognized variable - @m.x1.xm347.msky130_fd_pr__nfet_01v8[ib]
Warning: unrecognized variable - @m.x1.xm348.msky130_fd_pr__nfet_01v8[is]
Warning: unrecognized variable - @m.x1.xm348.msky130_fd_pr__nfet_01v8[ig]
Warning: unrecognized variable - @m.x1.xm348.msky130_fd_pr__nfet_01v8[ib]
Warning: unrecognized variable - @m.x1.xm349.msky130_fd_pr__nfet_01v8[is]
Warning: unrecognized variable - @m.x1.xm349.msky130_fd_pr__nfet_01v8[ig]
Warning: unrecognized variable - @m.x1.xm349.msky130_fd_pr__nfet_01v8[ib]
Warning: unrecognized variable - @m.x1.xm350.msky130_fd_pr__nfet_01v8[is]
Warning: unrecognized variable - @m.x1.xm350.msky130_fd_pr__nfet_01v8[ig]
Warning: unrecognized variable - @m.x1.xm350.msky130_fd_pr__nfet_01v8[ib]
Warning: unrecognized variable - @m.x1.xm351.msky130_fd_pr__nfet_01v8[is]
Warning: unrecognized variable - @m.x1.xm351.msky130_fd_pr__nfet_01v8[ig]
Warning: unrecognized variable - @m.x1.xm351.msky130_fd_pr__nfet_01v8[ib]
Warning: unrecognized variable - @m.x1.xm352.msky130_fd_pr__nfet_01v8[is]
Warning: unrecognized variable - @m.x1.xm352.msky130_fd_pr__nfet_01v8[ig]
Warning: unrecognized variable - @m.x1.xm352.msky130_fd_pr__nfet_01v8[ib]
Warning: unrecognized variable - @m.x1.xm353.msky130_fd_pr__nfet_01v8[is]
Warning: unrecognized variable - @m.x1.xm353.msky130_fd_pr__nfet_01v8[ig]
Warning: unrecognized variable - @m.x1.xm353.msky130_fd_pr__nfet_01v8[ib]
Warning: unrecognized variable - @m.x1.xm354.msky130_fd_pr__nfet_01v8[is]
Warning: unrecognized variable - @m.x1.xm354.msky130_fd_pr__nfet_01v8[ig]
Warning: unrecognized variable - @m.x1.xm354.msky130_fd_pr__nfet_01v8[ib]
Warning: unrecognized variable - @m.x1.xm355.msky130_fd_pr__nfet_01v8[is]
Warning: unrecognized variable - @m.x1.xm355.msky130_fd_pr__nfet_01v8[ig]
Warning: unrecognized variable - @m.x1.xm355.msky130_fd_pr__nfet_01v8[ib]
Warning: unrecognized variable - @m.x1.xm356.msky130_fd_pr__nfet_01v8[is]
Warning: unrecognized variable - @m.x1.xm356.msky130_fd_pr__nfet_01v8[ig]
Warning: unrecognized variable - @m.x1.xm356.msky130_fd_pr__nfet_01v8[ib]
Warning: unrecognized variable - @m.x1.xm357.msky130_fd_pr__nfet_01v8[is]
Warning: unrecognized variable - @m.x1.xm357.msky130_fd_pr__nfet_01v8[ig]
Warning: unrecognized variable - @m.x1.xm357.msky130_fd_pr__nfet_01v8[ib]
[...]
Warning: unrecognized variable - @m.x2.xm313.msky130_fd_pr__pfet_01v8[is]
Warning: unrecognized variable - @m.x2.xm313.msky130_fd_pr__pfet_01v8[ig]
Warning: unrecognized variable - @m.x2.xm313.msky130_fd_pr__pfet_01v8[ib]
Warning: unrecognized variable - @m.x2.xm314.msky130_fd_pr__pfet_01v8[is]
Warning: unrecognized variable - @m.x2.xm314.msky130_fd_pr__pfet_01v8[ig]
Warning: unrecognized variable - @m.x2.xm314.msky130_fd_pr__pfet_01v8[ib]
Warning: unrecognized variable - @m.x2.xm315.msky130_fd_pr__pfet_01v8[is]
Warning: unrecognized variable - @m.x2.xm315.msky130_fd_pr__pfet_01v8[ig]
Warning: unrecognized variable - @m.x2.xm315.msky130_fd_pr__pfet_01v8[ib]
Warning: unrecognized variable - @m.x2.xm316.msky130_fd_pr__pfet_01v8[is]
Warning: unrecognized variable - @m.x2.xm316.msky130_fd_pr__pfet_01v8[ig]
Warning: unrecognized variable - @m.x2.xm316.msky130_fd_pr__pfet_01v8[ib]
Warning: unrecognized variable - @m.x2.xm317.msky130_fd_pr__pfet_01v8[is]
Warning: unrecognized variable - @m.x2.xm317.msky130_fd_pr__pfet_01v8[ig]
Warning: unrecognized variable - @m.x2.xm317.msky130_fd_pr__pfet_01v8[ib]
Warning: unrecognized variable - @m.x2.xm318.msky130_fd_pr__pfet_01v8[is]
Warning: unrecognized variable - @m.x2.xm318.msky130_fd_pr__pfet_01v8[ig]
Warning: unrecognized variable - @m.x2.xm318.msky130_fd_pr__pfet_01v8[ib]
Warning: unrecognized variable - @m.x2.xm319.msky130_fd_pr__pfet_01v8[is]
Warning: unrecognized variable - @m.x2.xm319.msky130_fd_pr__pfet_01v8[ig]
Warning: unrecognized variable - @m.x2.xm319.msky130_fd_pr__pfet_01v8[ib]
Warning: unrecognized variable - @m.x2.xm320.msky130_fd_pr__pfet_01v8[is]
Warning: unrecognized variable - @m.x2.xm320.msky130_fd_pr__pfet_01v8[ig]
Warning: unrecognized variable - @m.x2.xm320.msky130_fd_pr__pfet_01v8[ib]
Warning: unrecognized variable - @m.x2.xm321.msky130_fd_pr__pfet_01v8[is]
Warning: unrecognized variable - @m.x2.xm321.msky130_fd_pr__pfet_01v8[ig]
Warning: unrecognized variable - @m.x2.xm321.msky130_fd_pr__pfet_01v8[ib]
Warning: unrecognized variable - @m.x2.xm322.msky130_fd_pr__pfet_01v8[is]
Warning: unrecognized variable - @m.x2.xm322.msky130_fd_pr__pfet_01v8[ig]
Warning: unrecognized variable - @m.x2.xm322.msky130_fd_pr__pfet_01v8[ib]
Warning: unrecognized variable - @m.x2.xm323.msky130_fd_pr__pfet_01v8[is]
Warning: unrecognized variable - @m.x2.xm323.msky130_fd_pr__pfet_01v8[ig]
Warning: unrecognized variable - @m.x2.xm323.msky130_fd_pr__pfet_01v8[ib]
Warning: unrecognized variable - @m.x2.xm324.msky130_fd_pr__pfet_01v8[is]
Warning: unrecognized variable - @m.x2.xm324.msky130_fd_pr__pfet_01v8[ig]
Warning: unrecognized variable - @m.x2.xm324.msky130_fd_pr__pfet_01v8[ib]
Warning: unrecognized variable - @m.x2.xm325.msky130_fd_pr__pfet_01v8[is]
Warning: unrecognized variable - @m.x2.xm325.msky130_fd_pr__pfet_01v8[ig]
Warning: unrecognized variable - @m.x2.xm325.msky130_fd_pr__pfet_01v8[ib]
Warning: unrecognized variable - @m.x2.xm326.msky130_fd_pr__pfet_01v8[is]
Warning: unrecognized variable - @m.x2.xm326.msky130_fd_pr__pfet_01v8[ig]
Warning: unrecognized variable - @m.x2.xm326.msky130_fd_pr__pfet_01v8[ib]
Warning: unrecognized variable - @m.x2.xm327.msky130_fd_pr__pfet_01v8[is]
Warning: unrecognized variable - @m.x2.xm327.msky130_fd_pr__pfet_01v8[ig]
Warning: unrecognized variable - @m.x2.xm327.msky130_fd_pr__pfet_01v8[ib]
Warning: unrecognized variable - @m.x2.xm328.msky130_fd_pr__pfet_01v8[is]
Warning: unrecognized variable - @m.x2.xm328.msky130_fd_pr__pfet_01v8[ig]
Warning: unrecognized variable - @m.x2.xm328.msky130_fd_pr__pfet_01v8[ib]
Warning: unrecognized variable - @m.x2.xm329.msky130_fd_pr__pfet_01v8[is]
Warning: unrecognized variable - @m.x2.xm329.msky130_fd_pr__pfet_01v8[ig]
Warning: unrecognized variable - @m.x2.xm329.msky130_fd_pr__pfet_01v8[ib]
Warning: unrecognized variable - @m.x2.xm330.msky130_fd_pr__pfet_01v8[is]
Warning: unrecognized variable - @m.x2.xm330.msky130_fd_pr__pfet_01v8[ig]
Warning: unrecognized variable - @m.x2.xm330.msky130_fd_pr__pfet_01v8[ib]
Warning: unrecognized variable - @m.x2.xm331.msky130_fd_pr__pfet_01v8[is]
Warning: unrecognized variable - @m.x2.xm331.msky130_fd_pr__pfet_01v8[ig]
Warning: unrecognized variable - @m.x2.xm331.msky130_fd_pr__pfet_01v8[ib]
Warning: unrecognized variable - @m.x2.xm332.msky130_fd_pr__pfet_01v8[is]
Warning: unrecognized variable - @m.x2.xm332.msky130_fd_pr__pfet_01v8[ig]
Warning: unrecognized variable - @m.x2.xm332.msky130_fd_pr__pfet_01v8[ib]
Warning: unrecognized variable - @m.x2.xm333.msky130_fd_pr__pfet_01v8[is]
Warning: unrecognized variable - @m.x2.xm333.msky130_fd_pr__pfet_01v8[ig]
Warning: unrecognized variable - @m.x2.xm333.msky130_fd_pr__pfet_01v8[ib]
Warning: unrecognized variable - @m.x2.xm334.msky130_fd_pr__pfet_01v8[is]
Warning: unrecognized variable - @m.x2.xm334.msky130_fd_pr__pfet_01v8[ig]
Warning: unrecognized variable - @m.x2.xm334.msky130_fd_pr__pfet_01v8[ib]
Warning: unrecognized variable - @m.x2.xm335.msky130_fd_pr__pfet_01v8[is]
Warning: unrecognized variable - @m.x2.xm335.msky130_fd_pr__pfet_01v8[ig]
Warning: unrecognized variable - @m.x2.xm335.msky130_fd_pr__pfet_01v8[ib]
Warning: unrecognized variable - @m.x2.xm336.msky130_fd_pr__pfet_01v8[is]
Warning: unrecognized variable - @m.x2.xm336.msky130_fd_pr__pfet_01v8[ig]
Warning: unrecognized variable - @m.x2.xm336.msky130_fd_pr__pfet_01v8[ib]
Warning: unrecognized variable - @m.x2.xm337.msky130_fd_pr__pfet_01v8[is]
Warning: unrecognized variable - @m.x2.xm337.msky130_fd_pr__pfet_01v8[ig]
Warning: unrecognized variable - @m.x2.xm337.msky130_fd_pr__pfet_01v8[ib]
Warning: unrecognized variable - @m.x2.xm338.msky130_fd_pr__pfet_01v8[is]
Warning: unrecognized variable - @m.x2.xm338.msky130_fd_pr__pfet_01v8[ig]
Warning: unrecognized variable - @m.x2.xm338.msky130_fd_pr__pfet_01v8[ib]
Warning: unrecognized variable - @m.x2.xm339.msky130_fd_pr__pfet_01v8[is]
Warning: unrecognized variable - @m.x2.xm339.msky130_fd_pr__pfet_01v8[ig]
Warning: unrecognized variable - @m.x2.xm339.msky130_fd_pr__pfet_01v8[ib]
Warning: unrecognized variable - @m.x2.xm340.msky130_fd_pr__pfet_01v8[is]
Warning: unrecognized variable - @m.x2.xm340.msky130_fd_pr__pfet_01v8[ig]
Warning: unrecognized variable - @m.x2.xm340.msky130_fd_pr__pfet_01v8[ib]
Warning: unrecognized variable - @m.x2.xm341.msky130_fd_pr__pfet_01v8[is]
Warning: unrecognized variable - @m.x2.xm341.msky130_fd_pr__pfet_01v8[ig]
Warning: unrecognized variable - @m.x2.xm341.msky130_fd_pr__pfet_01v8[ib]
Warning: unrecognized variable - @m.x2.xm342.msky130_fd_pr__pfet_01v8[is]
Warning: unrecognized variable - @m.x2.xm342.msky130_fd_pr__pfet_01v8[ig]
Warning: unrecognized variable - @m.x2.xm342.msky130_fd_pr__pfet_01v8[ib]
Warning: unrecognized variable - @m.x2.xm343.msky130_fd_pr__pfet_01v8[is]
Warning: unrecognized variable - @m.x2.xm343.msky130_fd_pr__pfet_01v8[ig]
Warning: unrecognized variable - @m.x2.xm343.msky130_fd_pr__pfet_01v8[ib]
Warning: unrecognized variable - @m.x2.xm344.msky130_fd_pr__pfet_01v8[is]
Warning: unrecognized variable - @m.x2.xm344.msky130_fd_pr__pfet_01v8[ig]
Warning: unrecognized variable - @m.x2.xm344.msky130_fd_pr__pfet_01v8[ib]
Warning: unrecognized variable - @m.x2.xm345.msky130_fd_pr__pfet_01v8[is]
Warning: unrecognized variable - @m.x2.xm345.msky130_fd_pr__pfet_01v8[ig]
Warning: unrecognized variable - @m.x2.xm345.msky130_fd_pr__pfet_01v8[ib]
Warning: unrecognized variable - @m.x2.xm346.msky130_fd_pr__pfet_01v8[is]
Warning: unrecognized variable - @m.x2.xm346.msky130_fd_pr__pfet_01v8[ig]
Warning: unrecognized variable - @m.x2.xm346.msky130_fd_pr__pfet_01v8[ib]
Warning: unrecognized variable - @m.x2.xm347.msky130_fd_pr__pfet_01v8[is]
Warning: unrecognized variable - @m.x2.xm347.msky130_fd_pr__pfet_01v8[ig]
Warning: unrecognized variable - @m.x2.xm347.msky130_fd_pr__pfet_01v8[ib]
Warning: unrecognized variable - @m.x2.xm348.msky130_fd_pr__pfet_01v8[is]
Warning: unrecognized variable - @m.x2.xm348.msky130_fd_pr__pfet_01v8[ig]
Warning: unrecognized variable - @m.x2.xm348.msky130_fd_pr__pfet_01v8[ib]
Warning: unrecognized variable - @m.x2.xm349.msky130_fd_pr__pfet_01v8[is]
Warning: unrecognized variable - @m.x2.xm349.msky130_fd_pr__pfet_01v8[ig]
Warning: unrecognized variable - @m.x2.xm349.msky130_fd_pr__pfet_01v8[ib]
Warning: unrecognized variable - @m.x2.xm350.msky130_fd_pr__pfet_01v8[is]
Warning: unrecognized variable - @m.x2.xm350.msky130_fd_pr__pfet_01v8[ig]
Warning: unrecognized variable - @m.x2.xm350.msky130_fd_pr__pfet_01v8[ib]
Warning: unrecognized variable - @m.x2.xm351.msky130_fd_pr__pfet_01v8[is]
Warning: unrecognized variable - @m.x2.xm351.msky130_fd_pr__pfet_01v8[ig]
Warning: unrecognized variable - @m.x2.xm351.msky130_fd_pr__pfet_01v8[ib]
Warning: unrecognized variable - @m.x2.xm352.msky130_fd_pr__pfet_01v8[is]
Warning: unrecognized variable - @m.x2.xm352.msky130_fd_pr__pfet_01v8[ig]
Warning: unrecognized variable - @m.x2.xm352.msky130_fd_pr__pfet_01v8[ib]
Warning: unrecognized variable - @m.x2.xm353.msky130_fd_pr__pfet_01v8[is]
Warning: unrecognized variable - @m.x2.xm353.msky130_fd_pr__pfet_01v8[ig]
Warning: unrecognized variable - @m.x2.xm353.msky130_fd_pr__pfet_01v8[ib]
Warning: unrecognized variable - @m.x2.xm354.msky130_fd_pr__pfet_01v8[is]
Warning: unrecognized variable - @m.x2.xm354.msky130_fd_pr__pfet_01v8[ig]
Warning: unrecognized variable - @m.x2.xm354.msky130_fd_pr__pfet_01v8[ib]
Warning: unrecognized variable - @m.x2.xm355.msky130_fd_pr__pfet_01v8[is]
Warning: unrecognized variable - @m.x2.xm355.msky130_fd_pr__pfet_01v8[ig]
Warning: unrecognized variable - @m.x2.xm355.msky130_fd_pr__pfet_01v8[ib]
Warning: unrecognized variable - @m.x2.xm356.msky130_fd_pr__pfet_01v8[is]
Warning: unrecognized variable - @m.x2.xm356.msky130_fd_pr__pfet_01v8[ig]
Warning: unrecognized variable - @m.x2.xm356.msky130_fd_pr__pfet_01v8[ib]
Warning: unrecognized variable - @m.x2.xm357.msky130_fd_pr__pfet_01v8[is]
Warning: unrecognized variable - @m.x2.xm357.msky130_fd_pr__pfet_01v8[ig]
Warning: unrecognized variable - @m.x2.xm357.msky130_fd_pr__pfet_01v8[ib]
Warning: unrecognized variable - @m.x2.xm358.msky130_fd_pr__pfet_01v8[is]
Warning: unrecognized variable - @m.x2.xm358.msky130_fd_pr__pfet_01v8[ig]
Warning: unrecognized variable - @m.x2.xm358.msky130_fd_pr__pfet_01v8[ib]
Warning: unrecognized variable - @m.x2.xm359.msky130_fd_pr__pfet_01v8[is]
Warning: unrecognized variable - @m.x2.xm359.msky130_fd_pr__pfet_01v8[ig]
Warning: unrecognized variable - @m.x2.xm359.msky130_fd_pr__pfet_01v8[ib]
Warning: unrecognized variable - @m.x2.xm360.msky130_fd_pr__pfet_01v8[is]
Warning: unrecognized variable - @m.x2.xm360.msky130_fd_pr__pfet_01v8[ig]
Warning: unrecognized variable - @m.x2.xm360.msky130_fd_pr__pfet_01v8[ib]
Warning: unrecognized variable - @m.x2.xm361.msky130_fd_pr__pfet_01v8[is]
Warning: unrecognized variable - @m.x2.xm361.msky130_fd_pr__pfet_01v8[ig]
Warning: unrecognized variable - @m.x2.xm361.msky130_fd_pr__pfet_01v8[ib]
Warning: unrecognized variable - @m.x2.xm362.msky130_fd_pr__pfet_01v8[is]
Warning: unrecognized variable - @m.x2.xm362.msky130_fd_pr__pfet_01v8[ig]
Warning: unrecognized variable - @m.x2.xm362.msky130_fd_pr__pfet_01v8[ib]
Warning: unrecognized variable - @m.x2.xm363.msky130_fd_pr__pfet_01v8[is]
Warning: unrecognized variable - @m.x2.xm363.msky130_fd_pr__pfet_01v8[ig]
Warning: unrecognized variable - @m.x2.xm363.msky130_fd_pr__pfet_01v8[ib]
Warning: unrecognized variable - @m.x2.xm364.msky130_fd_pr__pfet_01v8[is]
Warning: unrecognized variable - @m.x2.xm364.msky130_fd_pr__pfet_01v8[ig]
Warning: unrecognized variable - @m.x2.xm364.msky130_fd_pr__pfet_01v8[ib]
Warning: unrecognized variable - @m.x2.xm365.msky130_fd_pr__pfet_01v8[is]
Warning: unrecognized variable - @m.x2.xm365.msky130_fd_pr__pfet_01v8[ig]
Warning: unrecognized variable - @m.x2.xm365.msky130_fd_pr__pfet_01v8[ib]
Warning: unrecognized variable - @m.x2.xm366.msky130_fd_pr__pfet_01v8[is]
Warning: unrecognized variable - @m.x2.xm366.msky130_fd_pr__pfet_01v8[ig]
Warning: unrecognized variable - @m.x2.xm366.msky130_fd_pr__pfet_01v8[ib]
Warning: unrecognized variable - @m.x2.xm367.msky130_fd_pr__pfet_01v8[is]
Warning: unrecognized variable - @m.x2.xm367.msky130_fd_pr__pfet_01v8[ig]
Warning: unrecognized variable - @m.x2.xm367.msky130_fd_pr__pfet_01v8[ib]
Warning: unrecognized variable - @m.x2.xm368.msky130_fd_pr__pfet_01v8[is]
Warning: unrecognized variable - @m.x2.xm368.msky130_fd_pr__pfet_01v8[ig]
Warning: unrecognized variable - @m.x2.xm368.msky130_fd_pr__pfet_01v8[ib]
Warning: unrecognized variable - @m.x2.xm369.msky130_fd_pr__pfet_01v8[is]
Warning: unrecognized variable - @m.x2.xm369.msky130_fd_pr__pfet_01v8[ig]
Warning: unrecognized variable - @m.x2.xm369.msky130_fd_pr__pfet_01v8[ib]
Warning: unrecognized variable - @m.x2.xm370.msky130_fd_pr__pfet_01v8[is]
Warning: unrecognized variable - @m.x2.xm370.msky130_fd_pr__pfet_01v8[ig]
Warning: unrecognized variable - @m.x2.xm370.msky130_fd_pr__pfet_01v8[ib]
Warning: unrecognized variable - @m.x2.xm371.msky130_fd_pr__pfet_01v8[is]
Warning: unrecognized variable - @m.x2.xm371.msky130_fd_pr__pfet_01v8[ig]
Warning: unrecognized variable - @m.x2.xm371.msky130_fd_pr__pfet_01v8[ib]
Warning: unrecognized variable - @m.x2.xm372.msky130_fd_pr__pfet_01v8[is]
Warning: unrecognized variable - @m.x2.xm372.msky130_fd_pr__pfet_01v8[ig]
Warning: unrecognized variable - @m.x2.xm372.msky130_fd_pr__pfet_01v8[ib]
Warning: unrecognized variable - @m.x2.xm373.msky130_fd_pr__pfet_01v8[is]
Warning: unrecognized variable - @m.x2.xm373.msky130_fd_pr__pfet_01v8[ig]
Warning: unrecognized variable - @m.x2.xm373.msky130_fd_pr__pfet_01v8[ib]
Warning: unrecognized variable - @m.x2.xm374.msky130_fd_pr__pfet_01v8[is]
Warning: unrecognized variable - @m.x2.xm374.msky130_fd_pr__pfet_01v8[ig]
Warning: unrecognized variable - @m.x2.xm374.msky130_fd_pr__pfet_01v8[ib]
Warning: unrecognized variable - @m.x2.xm375.msky130_fd_pr__pfet_01v8[is]
Warning: unrecognized variable - @m.x2.xm375.msky130_fd_pr__pfet_01v8[ig]
Warning: unrecognized variable - @m.x2.xm375.msky130_fd_pr__pfet_01v8[ib]
Warning: unrecognized variable - @m.x2.xm376.msky130_fd_pr__pfet_01v8[is]
Warning: unrecognized variable - @m.x2.xm376.msky130_fd_pr__pfet_01v8[ig]
Warning: unrecognized variable - @m.x2.xm376.msky130_fd_pr__pfet_01v8[ib]
Warning: unrecognized variable - @m.x2.xm377.msky130_fd_pr__pfet_01v8[is]
Warning: unrecognized variable - @m.x2.xm377.msky130_fd_pr__pfet_01v8[ig]
Warning: unrecognized variable - @m.x2.xm377.msky130_fd_pr__pfet_01v8[ib]
Warning: unrecognized variable - @m.x2.xm378.msky130_fd_pr__pfet_01v8[is]
Warning: unrecognized variable - @m.x2.xm378.msky130_fd_pr__pfet_01v8[ig]
Warning: unrecognized variable - @m.x2.xm378.msky130_fd_pr__pfet_01v8[ib]
Warning: unrecognized variable - @m.x2.xm379.msky130_fd_pr__pfet_01v8[is]
Warning: unrecognized variable - @m.x2.xm379.msky130_fd_pr__pfet_01v8[ig]
Warning: unrecognized variable - @m.x2.xm379.msky130_fd_pr__pfet_01v8[ib]
Warning: unrecognized variable - @m.x2.xm380.msky130_fd_pr__pfet_01v8[is]
Warning: unrecognized variable - @m.x2.xm380.msky130_fd_pr__pfet_01v8[ig]
Warning: unrecognized variable - @m.x2.xm380.msky130_fd_pr__pfet_01v8[ib]
Warning: unrecognized variable - @m.x2.xm381.msky130_fd_pr__pfet_01v8[is]
Warning: unrecognized variable - @m.x2.xm381.msky130_fd_pr__pfet_01v8[ig]
Warning: unrecognized variable - @m.x2.xm381.msky130_fd_pr__pfet_01v8[ib]
Warning: unrecognized variable - @m.x2.xm382.msky130_fd_pr__pfet_01v8[is]
Warning: unrecognized variable - @m.x2.xm382.msky130_fd_pr__pfet_01v8[ig]
Warning: unrecognized variable - @m.x2.xm382.msky130_fd_pr__pfet_01v8[ib]
Warning: unrecognized variable - @m.x2.xm383.msky130_fd_pr__pfet_01v8[is]
Warning: unrecognized variable - @m.x2.xm383.msky130_fd_pr__pfet_01v8[ig]
Warning: unrecognized variable - @m.x2.xm383.msky130_fd_pr__pfet_01v8[ib]
Warning: unrecognized variable - @m.x2.xm384.msky130_fd_pr__pfet_01v8[is]
Warning: unrecognized variable - @m.x2.xm384.msky130_fd_pr__pfet_01v8[ig]
Warning: unrecognized variable - @m.x2.xm384.msky130_fd_pr__pfet_01v8[ib]
Warning: unrecognized variable - @m.x2.xm385.msky130_fd_pr__pfet_01v8[is]
Warning: unrecognized variable - @m.x2.xm385.msky130_fd_pr__pfet_01v8[ig]
Warning: unrecognized variable - @m.x2.xm385.msky130_fd_pr__pfet_01v8[ib]
Warning: unrecognized variable - @m.x2.xm386.msky130_fd_pr__pfet_01v8[is]
Warning: unrecognized variable - @m.x2.xm386.msky130_fd_pr__pfet_01v8[ig]
Warning: unrecognized variable - @m.x2.xm386.msky130_fd_pr__pfet_01v8[ib]
Warning: unrecognized variable - @m.x2.xm387.msky130_fd_pr__pfet_01v8[is]
Warning: unrecognized variable - @m.x2.xm387.msky130_fd_pr__pfet_01v8[ig]
Warning: unrecognized variable - @m.x2.xm387.msky130_fd_pr__pfet_01v8[ib]
Warning: unrecognized variable - @m.x2.xm388.msky130_fd_pr__pfet_01v8[is]
Warning: unrecognized variable - @m.x2.xm388.msky130_fd_pr__pfet_01v8[ig]
Warning: unrecognized variable - @m.x2.xm388.msky130_fd_pr__pfet_01v8[ib]
Warning: unrecognized variable - @m.x2.xm389.msky130_fd_pr__pfet_01v8[is]
Warning: unrecognized variable - @m.x2.xm389.msky130_fd_pr__pfet_01v8[ig]
Warning: unrecognized variable - @m.x2.xm389.msky130_fd_pr__pfet_01v8[ib]
Warning: unrecognized variable - @m.x2.xm390.msky130_fd_pr__pfet_01v8[is]
Warning: unrecognized variable - @m.x2.xm390.msky130_fd_pr__pfet_01v8[ig]
Warning: unrecognized variable - @m.x2.xm390.msky130_fd_pr__pfet_01v8[ib]
Warning: unrecognized variable - @m.x2.xm391.msky130_fd_pr__pfet_01v8[is]
Warning: unrecognized variable - @m.x2.xm391.msky130_fd_pr__pfet_01v8[ig]
Warning: unrecognized variable - @m.x2.xm391.msky130_fd_pr__pfet_01v8[ib]
Warning: unrecognized variable - @m.x2.xm392.msky130_fd_pr__pfet_01v8[is]
Warning: unrecognized variable - @m.x2.xm392.msky130_fd_pr__pfet_01v8[ig]
Warning: unrecognized variable - @m.x2.xm392.msky130_fd_pr__pfet_01v8[ib]
Warning: unrecognized variable - @m.x2.xm393.msky130_fd_pr__pfet_01v8[is]
Warning: unrecognized variable - @m.x2.xm393.msky130_fd_pr__pfet_01v8[ig]
Warning: unrecognized variable - @m.x2.xm393.msky130_fd_pr__pfet_01v8[ib]
Warning: unrecognized variable - @m.x2.xm394.msky130_fd_pr__pfet_01v8[is]
Warning: unrecognized variable - @m.x2.xm394.msky130_fd_pr__pfet_01v8[ig]
Warning: unrecognized variable - @m.x2.xm394.msky130_fd_pr__pfet_01v8[ib]
Warning: unrecognized variable - @m.x2.xm395.msky130_fd_pr__pfet_01v8[is]
Warning: unrecognized variable - @m.x2.xm395.msky130_fd_pr__pfet_01v8[ig]
Warning: unrecognized variable - @m.x2.xm395.msky130_fd_pr__pfet_01v8[ib]
Warning: unrecognized variable - @m.x2.xm396.msky130_fd_pr__pfet_01v8[is]
Warning: unrecognized variable - @m.x2.xm396.msky130_fd_pr__pfet_01v8[ig]
Warning: unrecognized variable - @m.x2.xm396.msky130_fd_pr__pfet_01v8[ib]
Warning: unrecognized variable - @m.x2.xm397.msky130_fd_pr__pfet_01v8[is]
Warning: unrecognized variable - @m.x2.xm397.msky130_fd_pr__pfet_01v8[ig]
Warning: unrecognized variable - @m.x2.xm397.msky130_fd_pr__pfet_01v8[ib]
Warning: unrecognized variable - @m.x2.xm398.msky130_fd_pr__pfet_01v8[is]
Warning: unrecognized variable - @m.x2.xm398.msky130_fd_pr__pfet_01v8[ig]
Warning: unrecognized variable - @m.x2.xm398.msky130_fd_pr__pfet_01v8[ib]
Warning: unrecognized variable - @m.x2.xm399.msky130_fd_pr__pfet_01v8[is]
Warning: unrecognized variable - @m.x2.xm399.msky130_fd_pr__pfet_01v8[ig]
Warning: unrecognized variable - @m.x2.xm399.msky130_fd_pr__pfet_01v8[ib]
Warning: unrecognized variable - @m.x2.xm400.msky130_fd_pr__pfet_01v8[is]
Warning: unrecognized variable - @m.x2.xm400.msky130_fd_pr__pfet_01v8[ig]
Warning: unrecognized variable - @m.x2.xm400.msky130_fd_pr__pfet_01v8[ib]

No. of Data Rows : 30724

Total analysis time (seconds) = 632.749

Total elapsed time (seconds) = 693.069 

Total DRAM available = 3721.961 MB.
DRAM currently available =  119.938 MB.
Maximum ngspice program size =  749.559 MB.
Current ngspice program size =  658.887 MB.

Shared ngspice pages =    4.266 MB.
Text (code) pages =    6.168 MB.
Stack = 0 bytes.
Library pages =  662.625 MB.

