
Compatibility modes selected: hs a

Warning: m=xx on .subckt line will override multiplier m hierarchy!


Circuit: **.subckt nikhim_inv

option SCALE: Scale is set to 1e-06 for instance and model parameters
binary raw file "./nikhim_inv.raw"
Doing analysis at TEMP = 27.000000 and TNOM = 27.000000

No. of Data Columns : 12  

No. of Data Rows : 181

Total analysis time (seconds) = 0.081

Total elapsed time (seconds) = 57.626 

Total DRAM available = 3721.961 MB.
DRAM currently available =  265.465 MB.
Maximum ngspice program size =  748.852 MB.
Current ngspice program size =  658.168 MB.

Shared ngspice pages =    4.281 MB.
Text (code) pages =    6.168 MB.
Stack = 0 bytes.
Library pages =  661.918 MB.

