
Compatibility modes selected: hs a

Warning: m=xx on .subckt line will override multiplier m hierarchy!


Circuit: **.subckt pmos_dc

option SCALE: Scale is set to 1e-06 for instance and model parameters
binary raw file "./pmos_DC.raw"
Doing analysis at TEMP = 27.000000 and TNOM = 27.000000

No. of Data Columns : 8  

No. of Data Rows : 181
.plot line ignored since rawfile was produced.

Total analysis time (seconds) = 0.005

Total elapsed time (seconds) = 56.896 

Total DRAM available = 3721.961 MB.
DRAM currently available =  417.945 MB.
Maximum ngspice program size =  748.902 MB.
Current ngspice program size =  658.223 MB.

Shared ngspice pages =    4.285 MB.
Text (code) pages =    6.168 MB.
Stack = 0 bytes.
Library pages =  661.969 MB.

