
Compatibility modes selected: hs a

Warning: m=xx on .subckt line will override multiplier m hierarchy!


Circuit: **.subckt powern

option SCALE: Scale is set to 1e-06 for instance and model parameters
binary raw file "./powern.raw"
Doing analysis at TEMP = 27.000000 and TNOM = 27.000000

No. of Data Columns : 2104  
Warning: unrecognized variable - @m.xm1.msky130_fd_pr__nfet_01v8[is]
Warning: unrecognized variable - @m.xm1.msky130_fd_pr__nfet_01v8[ig]
Warning: unrecognized variable - @m.xm1.msky130_fd_pr__nfet_01v8[ib]
Warning: unrecognized variable - @m.xm2.msky130_fd_pr__nfet_01v8[is]
Warning: unrecognized variable - @m.xm2.msky130_fd_pr__nfet_01v8[ig]
Warning: unrecognized variable - @m.xm2.msky130_fd_pr__nfet_01v8[ib]
Warning: unrecognized variable - @m.xm3.msky130_fd_pr__nfet_01v8[is]
Warning: unrecognized variable - @m.xm3.msky130_fd_pr__nfet_01v8[ig]
Warning: unrecognized variable - @m.xm3.msky130_fd_pr__nfet_01v8[ib]
Warning: unrecognized variable - @m.xm4.msky130_fd_pr__nfet_01v8[is]
Warning: unrecognized variable - @m.xm4.msky130_fd_pr__nfet_01v8[ig]
Warning: unrecognized variable - @m.xm4.msky130_fd_pr__nfet_01v8[ib]
Warning: unrecognized variable - @m.xm5.msky130_fd_pr__nfet_01v8[is]
Warning: unrecognized variable - @m.xm5.msky130_fd_pr__nfet_01v8[ig]
Warning: unrecognized variable - @m.xm5.msky130_fd_pr__nfet_01v8[ib]
Warning: unrecognized variable - @m.xm6.msky130_fd_pr__nfet_01v8[is]
Warning: unrecognized variable - @m.xm6.msky130_fd_pr__nfet_01v8[ig]
Warning: unrecognized variable - @m.xm6.msky130_fd_pr__nfet_01v8[ib]
Warning: unrecognized variable - @m.xm7.msky130_fd_pr__nfet_01v8[is]
Warning: unrecognized variable - @m.xm7.msky130_fd_pr__nfet_01v8[ig]
Warning: unrecognized variable - @m.xm7.msky130_fd_pr__nfet_01v8[ib]
Warning: unrecognized variable - @m.xm8.msky130_fd_pr__nfet_01v8[is]
Warning: unrecognized variable - @m.xm8.msky130_fd_pr__nfet_01v8[ig]
Warning: unrecognized variable - @m.xm8.msky130_fd_pr__nfet_01v8[ib]
Warning: unrecognized variable - @m.xm9.msky130_fd_pr__nfet_01v8[is]
Warning: unrecognized variable - @m.xm9.msky130_fd_pr__nfet_01v8[ig]
Warning: unrecognized variable - @m.xm9.msky130_fd_pr__nfet_01v8[ib]
Warning: unrecognized variable - @m.xm10.msky130_fd_pr__nfet_01v8[is]
Warning: unrecognized variable - @m.xm10.msky130_fd_pr__nfet_01v8[ig]
Warning: unrecognized variable - @m.xm10.msky130_fd_pr__nfet_01v8[ib]
Warning: unrecognized variable - @m.xm11.msky130_fd_pr__nfet_01v8[is]
Warning: unrecognized variable - @m.xm11.msky130_fd_pr__nfet_01v8[ig]
Warning: unrecognized variable - @m.xm11.msky130_fd_pr__nfet_01v8[ib]
Warning: unrecognized variable - @m.xm12.msky130_fd_pr__nfet_01v8[is]
Warning: unrecognized variable - @m.xm12.msky130_fd_pr__nfet_01v8[ig]
Warning: unrecognized variable - @m.xm12.msky130_fd_pr__nfet_01v8[ib]
Warning: unrecognized variable - @m.xm13.msky130_fd_pr__nfet_01v8[is]
Warning: unrecognized variable - @m.xm13.msky130_fd_pr__nfet_01v8[ig]
Warning: unrecognized variable - @m.xm13.msky130_fd_pr__nfet_01v8[ib]
Warning: unrecognized variable - @m.xm14.msky130_fd_pr__nfet_01v8[is]
Warning: unrecognized variable - @m.xm14.msky130_fd_pr__nfet_01v8[ig]
Warning: unrecognized variable - @m.xm14.msky130_fd_pr__nfet_01v8[ib]
Warning: unrecognized variable - @m.xm15.msky130_fd_pr__nfet_01v8[is]
Warning: unrecognized variable - @m.xm15.msky130_fd_pr__nfet_01v8[ig]
Warning: unrecognized variable - @m.xm15.msky130_fd_pr__nfet_01v8[ib]
Warning: unrecognized variable - @m.xm16.msky130_fd_pr__nfet_01v8[is]
Warning: unrecognized variable - @m.xm16.msky130_fd_pr__nfet_01v8[ig]
Warning: unrecognized variable - @m.xm16.msky130_fd_pr__nfet_01v8[ib]
Warning: unrecognized variable - @m.xm17.msky130_fd_pr__nfet_01v8[is]
Warning: unrecognized variable - @m.xm17.msky130_fd_pr__nfet_01v8[ig]
Warning: unrecognized variable - @m.xm17.msky130_fd_pr__nfet_01v8[ib]
Warning: unrecognized variable - @m.xm18.msky130_fd_pr__nfet_01v8[is]
Warning: unrecognized variable - @m.xm18.msky130_fd_pr__nfet_01v8[ig]
Warning: unrecognized variable - @m.xm18.msky130_fd_pr__nfet_01v8[ib]
Warning: unrecognized variable - @m.xm19.msky130_fd_pr__nfet_01v8[is]
Warning: unrecognized variable - @m.xm19.msky130_fd_pr__nfet_01v8[ig]
Warning: unrecognized variable - @m.xm19.msky130_fd_pr__nfet_01v8[ib]
Warning: unrecognized variable - @m.xm20.msky130_fd_pr__nfet_01v8[is]
Warning: unrecognized variable - @m.xm20.msky130_fd_pr__nfet_01v8[ig]
Warning: unrecognized variable - @m.xm20.msky130_fd_pr__nfet_01v8[ib]
Warning: unrecognized variable - @m.xm21.msky130_fd_pr__nfet_01v8[is]
Warning: unrecognized variable - @m.xm21.msky130_fd_pr__nfet_01v8[ig]
Warning: unrecognized variable - @m.xm21.msky130_fd_pr__nfet_01v8[ib]
Warning: unrecognized variable - @m.xm22.msky130_fd_pr__nfet_01v8[is]
Warning: unrecognized variable - @m.xm22.msky130_fd_pr__nfet_01v8[ig]
Warning: unrecognized variable - @m.xm22.msky130_fd_pr__nfet_01v8[ib]
Warning: unrecognized variable - @m.xm23.msky130_fd_pr__nfet_01v8[is]
Warning: unrecognized variable - @m.xm23.msky130_fd_pr__nfet_01v8[ig]
Warning: unrecognized variable - @m.xm23.msky130_fd_pr__nfet_01v8[ib]
Warning: unrecognized variable - @m.xm24.msky130_fd_pr__nfet_01v8[is]
Warning: unrecognized variable - @m.xm24.msky130_fd_pr__nfet_01v8[ig]
Warning: unrecognized variable - @m.xm24.msky130_fd_pr__nfet_01v8[ib]
Warning: unrecognized variable - @m.xm25.msky130_fd_pr__nfet_01v8[is]
Warning: unrecognized variable - @m.xm25.msky130_fd_pr__nfet_01v8[ig]
Warning: unrecognized variable - @m.xm25.msky130_fd_pr__nfet_01v8[ib]
Warning: unrecognized variable - @m.xm26.msky130_fd_pr__nfet_01v8[is]
Warning: unrecognized variable - @m.xm26.msky130_fd_pr__nfet_01v8[ig]
Warning: unrecognized variable - @m.xm26.msky130_fd_pr__nfet_01v8[ib]
Warning: unrecognized variable - @m.xm27.msky130_fd_pr__nfet_01v8[is]
Warning: unrecognized variable - @m.xm27.msky130_fd_pr__nfet_01v8[ig]
Warning: unrecognized variable - @m.xm27.msky130_fd_pr__nfet_01v8[ib]
Warning: unrecognized variable - @m.xm28.msky130_fd_pr__nfet_01v8[is]
Warning: unrecognized variable - @m.xm28.msky130_fd_pr__nfet_01v8[ig]
Warning: unrecognized variable - @m.xm28.msky130_fd_pr__nfet_01v8[ib]
Warning: unrecognized variable - @m.xm29.msky130_fd_pr__nfet_01v8[is]
Warning: unrecognized variable - @m.xm29.msky130_fd_pr__nfet_01v8[ig]
Warning: unrecognized variable - @m.xm29.msky130_fd_pr__nfet_01v8[ib]
Warning: unrecognized variable - @m.xm30.msky130_fd_pr__nfet_01v8[is]
Warning: unrecognized variable - @m.xm30.msky130_fd_pr__nfet_01v8[ig]
Warning: unrecognized variable - @m.xm30.msky130_fd_pr__nfet_01v8[ib]
Warning: unrecognized variable - @m.xm31.msky130_fd_pr__nfet_01v8[is]
Warning: unrecognized variable - @m.xm31.msky130_fd_pr__nfet_01v8[ig]
Warning: unrecognized variable - @m.xm31.msky130_fd_pr__nfet_01v8[ib]
Warning: unrecognized variable - @m.xm32.msky130_fd_pr__nfet_01v8[is]
Warning: unrecognized variable - @m.xm32.msky130_fd_pr__nfet_01v8[ig]
Warning: unrecognized variable - @m.xm32.msky130_fd_pr__nfet_01v8[ib]
Warning: unrecognized variable - @m.xm33.msky130_fd_pr__nfet_01v8[is]
Warning: unrecognized variable - @m.xm33.msky130_fd_pr__nfet_01v8[ig]
Warning: unrecognized variable - @m.xm33.msky130_fd_pr__nfet_01v8[ib]
Warning: unrecognized variable - @m.xm34.msky130_fd_pr__nfet_01v8[is]
Warning: unrecognized variable - @m.xm34.msky130_fd_pr__nfet_01v8[ig]
Warning: unrecognized variable - @m.xm34.msky130_fd_pr__nfet_01v8[ib]
Warning: unrecognized variable - @m.xm35.msky130_fd_pr__nfet_01v8[is]
Warning: unrecognized variable - @m.xm35.msky130_fd_pr__nfet_01v8[ig]
Warning: unrecognized variable - @m.xm35.msky130_fd_pr__nfet_01v8[ib]
Warning: unrecognized variable - @m.xm36.msky130_fd_pr__nfet_01v8[is]
Warning: unrecognized variable - @m.xm36.msky130_fd_pr__nfet_01v8[ig]
Warning: unrecognized variable - @m.xm36.msky130_fd_pr__nfet_01v8[ib]
Warning: unrecognized variable - @m.xm37.msky130_fd_pr__nfet_01v8[is]
Warning: unrecognized variable - @m.xm37.msky130_fd_pr__nfet_01v8[ig]
Warning: unrecognized variable - @m.xm37.msky130_fd_pr__nfet_01v8[ib]
Warning: unrecognized variable - @m.xm38.msky130_fd_pr__nfet_01v8[is]
Warning: unrecognized variable - @m.xm38.msky130_fd_pr__nfet_01v8[ig]
Warning: unrecognized variable - @m.xm38.msky130_fd_pr__nfet_01v8[ib]
Warning: unrecognized variable - @m.xm39.msky130_fd_pr__nfet_01v8[is]
Warning: unrecognized variable - @m.xm39.msky130_fd_pr__nfet_01v8[ig]
Warning: unrecognized variable - @m.xm39.msky130_fd_pr__nfet_01v8[ib]
Warning: unrecognized variable - @m.xm40.msky130_fd_pr__nfet_01v8[is]
Warning: unrecognized variable - @m.xm40.msky130_fd_pr__nfet_01v8[ig]
Warning: unrecognized variable - @m.xm40.msky130_fd_pr__nfet_01v8[ib]
Warning: unrecognized variable - @m.xm41.msky130_fd_pr__nfet_01v8[is]
Warning: unrecognized variable - @m.xm41.msky130_fd_pr__nfet_01v8[ig]
Warning: unrecognized variable - @m.xm41.msky130_fd_pr__nfet_01v8[ib]
Warning: unrecognized variable - @m.xm42.msky130_fd_pr__nfet_01v8[is]
Warning: unrecognized variable - @m.xm42.msky130_fd_pr__nfet_01v8[ig]
Warning: unrecognized variable - @m.xm42.msky130_fd_pr__nfet_01v8[ib]
Warning: unrecognized variable - @m.xm43.msky130_fd_pr__nfet_01v8[is]
Warning: unrecognized variable - @m.xm43.msky130_fd_pr__nfet_01v8[ig]
Warning: unrecognized variable - @m.xm43.msky130_fd_pr__nfet_01v8[ib]
Warning: unrecognized variable - @m.xm44.msky130_fd_pr__nfet_01v8[is]
Warning: unrecognized variable - @m.xm44.msky130_fd_pr__nfet_01v8[ig]
Warning: unrecognized variable - @m.xm44.msky130_fd_pr__nfet_01v8[ib]
Warning: unrecognized variable - @m.xm45.msky130_fd_pr__nfet_01v8[is]
Warning: unrecognized variable - @m.xm45.msky130_fd_pr__nfet_01v8[ig]
Warning: unrecognized variable - @m.xm45.msky130_fd_pr__nfet_01v8[ib]
Warning: unrecognized variable - @m.xm46.msky130_fd_pr__nfet_01v8[is]
Warning: unrecognized variable - @m.xm46.msky130_fd_pr__nfet_01v8[ig]
Warning: unrecognized variable - @m.xm46.msky130_fd_pr__nfet_01v8[ib]
Warning: unrecognized variable - @m.xm47.msky130_fd_pr__nfet_01v8[is]
Warning: unrecognized variable - @m.xm47.msky130_fd_pr__nfet_01v8[ig]
Warning: unrecognized variable - @m.xm47.msky130_fd_pr__nfet_01v8[ib]
Warning: unrecognized variable - @m.xm48.msky130_fd_pr__nfet_01v8[is]
Warning: unrecognized variable - @m.xm48.msky130_fd_pr__nfet_01v8[ig]
Warning: unrecognized variable - @m.xm48.msky130_fd_pr__nfet_01v8[ib]
Warning: unrecognized variable - @m.xm49.msky130_fd_pr__nfet_01v8[is]
Warning: unrecognized variable - @m.xm49.msky130_fd_pr__nfet_01v8[ig]
Warning: unrecognized variable - @m.xm49.msky130_fd_pr__nfet_01v8[ib]
Warning: unrecognized variable - @m.xm50.msky130_fd_pr__nfet_01v8[is]
Warning: unrecognized variable - @m.xm50.msky130_fd_pr__nfet_01v8[ig]
Warning: unrecognized variable - @m.xm50.msky130_fd_pr__nfet_01v8[ib]
Warning: unrecognized variable - @m.xm51.msky130_fd_pr__nfet_01v8[is]
Warning: unrecognized variable - @m.xm51.msky130_fd_pr__nfet_01v8[ig]
Warning: unrecognized variable - @m.xm51.msky130_fd_pr__nfet_01v8[ib]
Warning: unrecognized variable - @m.xm52.msky130_fd_pr__nfet_01v8[is]
Warning: unrecognized variable - @m.xm52.msky130_fd_pr__nfet_01v8[ig]
Warning: unrecognized variable - @m.xm52.msky130_fd_pr__nfet_01v8[ib]
Warning: unrecognized variable - @m.xm53.msky130_fd_pr__nfet_01v8[is]
Warning: unrecognized variable - @m.xm53.msky130_fd_pr__nfet_01v8[ig]
Warning: unrecognized variable - @m.xm53.msky130_fd_pr__nfet_01v8[ib]
Warning: unrecognized variable - @m.xm54.msky130_fd_pr__nfet_01v8[is]
Warning: unrecognized variable - @m.xm54.msky130_fd_pr__nfet_01v8[ig]
Warning: unrecognized variable - @m.xm54.msky130_fd_pr__nfet_01v8[ib]
Warning: unrecognized variable - @m.xm55.msky130_fd_pr__nfet_01v8[is]
Warning: unrecognized variable - @m.xm55.msky130_fd_pr__nfet_01v8[ig]
Warning: unrecognized variable - @m.xm55.msky130_fd_pr__nfet_01v8[ib]
Warning: unrecognized variable - @m.xm56.msky130_fd_pr__nfet_01v8[is]
Warning: unrecognized variable - @m.xm56.msky130_fd_pr__nfet_01v8[ig]
Warning: unrecognized variable - @m.xm56.msky130_fd_pr__nfet_01v8[ib]
Warning: unrecognized variable - @m.xm57.msky130_fd_pr__nfet_01v8[is]
Warning: unrecognized variable - @m.xm57.msky130_fd_pr__nfet_01v8[ig]
Warning: unrecognized variable - @m.xm57.msky130_fd_pr__nfet_01v8[ib]
Warning: unrecognized variable - @m.xm58.msky130_fd_pr__nfet_01v8[is]
Warning: unrecognized variable - @m.xm58.msky130_fd_pr__nfet_01v8[ig]
Warning: unrecognized variable - @m.xm58.msky130_fd_pr__nfet_01v8[ib]
Warning: unrecognized variable - @m.xm59.msky130_fd_pr__nfet_01v8[is]
Warning: unrecognized variable - @m.xm59.msky130_fd_pr__nfet_01v8[ig]
Warning: unrecognized variable - @m.xm59.msky130_fd_pr__nfet_01v8[ib]
Warning: unrecognized variable - @m.xm60.msky130_fd_pr__nfet_01v8[is]
Warning: unrecognized variable - @m.xm60.msky130_fd_pr__nfet_01v8[ig]
Warning: unrecognized variable - @m.xm60.msky130_fd_pr__nfet_01v8[ib]
Warning: unrecognized variable - @m.xm61.msky130_fd_pr__nfet_01v8[is]
Warning: unrecognized variable - @m.xm61.msky130_fd_pr__nfet_01v8[ig]
Warning: unrecognized variable - @m.xm61.msky130_fd_pr__nfet_01v8[ib]
Warning: unrecognized variable - @m.xm62.msky130_fd_pr__nfet_01v8[is]
Warning: unrecognized variable - @m.xm62.msky130_fd_pr__nfet_01v8[ig]
Warning: unrecognized variable - @m.xm62.msky130_fd_pr__nfet_01v8[ib]
Warning: unrecognized variable - @m.xm63.msky130_fd_pr__nfet_01v8[is]
Warning: unrecognized variable - @m.xm63.msky130_fd_pr__nfet_01v8[ig]
Warning: unrecognized variable - @m.xm63.msky130_fd_pr__nfet_01v8[ib]
Warning: unrecognized variable - @m.xm64.msky130_fd_pr__nfet_01v8[is]
Warning: unrecognized variable - @m.xm64.msky130_fd_pr__nfet_01v8[ig]
Warning: unrecognized variable - @m.xm64.msky130_fd_pr__nfet_01v8[ib]
Warning: unrecognized variable - @m.xm65.msky130_fd_pr__nfet_01v8[is]
Warning: unrecognized variable - @m.xm65.msky130_fd_pr__nfet_01v8[ig]
Warning: unrecognized variable - @m.xm65.msky130_fd_pr__nfet_01v8[ib]
Warning: unrecognized variable - @m.xm66.msky130_fd_pr__nfet_01v8[is]
Warning: unrecognized variable - @m.xm66.msky130_fd_pr__nfet_01v8[ig]
Warning: unrecognized variable - @m.xm66.msky130_fd_pr__nfet_01v8[ib]
Warning: unrecognized variable - @m.xm67.msky130_fd_pr__nfet_01v8[is]
Warning: unrecognized variable - @m.xm67.msky130_fd_pr__nfet_01v8[ig]
Warning: unrecognized variable - @m.xm67.msky130_fd_pr__nfet_01v8[ib]
Warning: unrecognized variable - @m.xm68.msky130_fd_pr__nfet_01v8[is]
Warning: unrecognized variable - @m.xm68.msky130_fd_pr__nfet_01v8[ig]
Warning: unrecognized variable - @m.xm68.msky130_fd_pr__nfet_01v8[ib]
Warning: unrecognized variable - @m.xm69.msky130_fd_pr__nfet_01v8[is]
Warning: unrecognized variable - @m.xm69.msky130_fd_pr__nfet_01v8[ig]
Warning: unrecognized variable - @m.xm69.msky130_fd_pr__nfet_01v8[ib]
Warning: unrecognized variable - @m.xm70.msky130_fd_pr__nfet_01v8[is]
Warning: unrecognized variable - @m.xm70.msky130_fd_pr__nfet_01v8[ig]
Warning: unrecognized variable - @m.xm70.msky130_fd_pr__nfet_01v8[ib]
Warning: unrecognized variable - @m.xm71.msky130_fd_pr__nfet_01v8[is]
Warning: unrecognized variable - @m.xm71.msky130_fd_pr__nfet_01v8[ig]
Warning: unrecognized variable - @m.xm71.msky130_fd_pr__nfet_01v8[ib]
Warning: unrecognized variable - @m.xm72.msky130_fd_pr__nfet_01v8[is]
Warning: unrecognized variable - @m.xm72.msky130_fd_pr__nfet_01v8[ig]
Warning: unrecognized variable - @m.xm72.msky130_fd_pr__nfet_01v8[ib]
Warning: unrecognized variable - @m.xm73.msky130_fd_pr__nfet_01v8[is]
Warning: unrecognized variable - @m.xm73.msky130_fd_pr__nfet_01v8[ig]
Warning: unrecognized variable - @m.xm73.msky130_fd_pr__nfet_01v8[ib]
Warning: unrecognized variable - @m.xm74.msky130_fd_pr__nfet_01v8[is]
Warning: unrecognized variable - @m.xm74.msky130_fd_pr__nfet_01v8[ig]
Warning: unrecognized variable - @m.xm74.msky130_fd_pr__nfet_01v8[ib]
Warning: unrecognized variable - @m.xm75.msky130_fd_pr__nfet_01v8[is]
Warning: unrecognized variable - @m.xm75.msky130_fd_pr__nfet_01v8[ig]
Warning: unrecognized variable - @m.xm75.msky130_fd_pr__nfet_01v8[ib]
Warning: unrecognized variable - @m.xm76.msky130_fd_pr__nfet_01v8[is]
Warning: unrecognized variable - @m.xm76.msky130_fd_pr__nfet_01v8[ig]
Warning: unrecognized variable - @m.xm76.msky130_fd_pr__nfet_01v8[ib]
Warning: unrecognized variable - @m.xm77.msky130_fd_pr__nfet_01v8[is]
Warning: unrecognized variable - @m.xm77.msky130_fd_pr__nfet_01v8[ig]
Warning: unrecognized variable - @m.xm77.msky130_fd_pr__nfet_01v8[ib]
Warning: unrecognized variable - @m.xm78.msky130_fd_pr__nfet_01v8[is]
Warning: unrecognized variable - @m.xm78.msky130_fd_pr__nfet_01v8[ig]
Warning: unrecognized variable - @m.xm78.msky130_fd_pr__nfet_01v8[ib]
Warning: unrecognized variable - @m.xm79.msky130_fd_pr__nfet_01v8[is]
Warning: unrecognized variable - @m.xm79.msky130_fd_pr__nfet_01v8[ig]
Warning: unrecognized variable - @m.xm79.msky130_fd_pr__nfet_01v8[ib]
Warning: unrecognized variable - @m.xm80.msky130_fd_pr__nfet_01v8[is]
Warning: unrecognized variable - @m.xm80.msky130_fd_pr__nfet_01v8[ig]
Warning: unrecognized variable - @m.xm80.msky130_fd_pr__nfet_01v8[ib]
Warning: unrecognized variable - @m.xm81.msky130_fd_pr__nfet_01v8[is]
Warning: unrecognized variable - @m.xm81.msky130_fd_pr__nfet_01v8[ig]
Warning: unrecognized variable - @m.xm81.msky130_fd_pr__nfet_01v8[ib]
Warning: unrecognized variable - @m.xm82.msky130_fd_pr__nfet_01v8[is]
Warning: unrecognized variable - @m.xm82.msky130_fd_pr__nfet_01v8[ig]
Warning: unrecognized variable - @m.xm82.msky130_fd_pr__nfet_01v8[ib]
Warning: unrecognized variable - @m.xm83.msky130_fd_pr__nfet_01v8[is]
Warning: unrecognized variable - @m.xm83.msky130_fd_pr__nfet_01v8[ig]
Warning: unrecognized variable - @m.xm83.msky130_fd_pr__nfet_01v8[ib]
Warning: unrecognized variable - @m.xm84.msky130_fd_pr__nfet_01v8[is]
Warning: unrecognized variable - @m.xm84.msky130_fd_pr__nfet_01v8[ig]
Warning: unrecognized variable - @m.xm84.msky130_fd_pr__nfet_01v8[ib]
Warning: unrecognized variable - @m.xm85.msky130_fd_pr__nfet_01v8[is]
Warning: unrecognized variable - @m.xm85.msky130_fd_pr__nfet_01v8[ig]
Warning: unrecognized variable - @m.xm85.msky130_fd_pr__nfet_01v8[ib]
Warning: unrecognized variable - @m.xm86.msky130_fd_pr__nfet_01v8[is]
Warning: unrecognized variable - @m.xm86.msky130_fd_pr__nfet_01v8[ig]
Warning: unrecognized variable - @m.xm86.msky130_fd_pr__nfet_01v8[ib]
Warning: unrecognized variable - @m.xm87.msky130_fd_pr__nfet_01v8[is]
Warning: unrecognized variable - @m.xm87.msky130_fd_pr__nfet_01v8[ig]
Warning: unrecognized variable - @m.xm87.msky130_fd_pr__nfet_01v8[ib]
Warning: unrecognized variable - @m.xm88.msky130_fd_pr__nfet_01v8[is]
Warning: unrecognized variable - @m.xm88.msky130_fd_pr__nfet_01v8[ig]
Warning: unrecognized variable - @m.xm88.msky130_fd_pr__nfet_01v8[ib]
Warning: unrecognized variable - @m.xm89.msky130_fd_pr__nfet_01v8[is]
Warning: unrecognized variable - @m.xm89.msky130_fd_pr__nfet_01v8[ig]
Warning: unrecognized variable - @m.xm89.msky130_fd_pr__nfet_01v8[ib]
Warning: unrecognized variable - @m.xm90.msky130_fd_pr__nfet_01v8[is]
Warning: unrecognized variable - @m.xm90.msky130_fd_pr__nfet_01v8[ig]
Warning: unrecognized variable - @m.xm90.msky130_fd_pr__nfet_01v8[ib]
Warning: unrecognized variable - @m.xm91.msky130_fd_pr__nfet_01v8[is]
Warning: unrecognized variable - @m.xm91.msky130_fd_pr__nfet_01v8[ig]
Warning: unrecognized variable - @m.xm91.msky130_fd_pr__nfet_01v8[ib]
Warning: unrecognized variable - @m.xm92.msky130_fd_pr__nfet_01v8[is]
Warning: unrecognized variable - @m.xm92.msky130_fd_pr__nfet_01v8[ig]
Warning: unrecognized variable - @m.xm92.msky130_fd_pr__nfet_01v8[ib]
Warning: unrecognized variable - @m.xm93.msky130_fd_pr__nfet_01v8[is]
Warning: unrecognized variable - @m.xm93.msky130_fd_pr__nfet_01v8[ig]
Warning: unrecognized variable - @m.xm93.msky130_fd_pr__nfet_01v8[ib]
Warning: unrecognized variable - @m.xm94.msky130_fd_pr__nfet_01v8[is]
Warning: unrecognized variable - @m.xm94.msky130_fd_pr__nfet_01v8[ig]
Warning: unrecognized variable - @m.xm94.msky130_fd_pr__nfet_01v8[ib]
Warning: unrecognized variable - @m.xm95.msky130_fd_pr__nfet_01v8[is]
Warning: unrecognized variable - @m.xm95.msky130_fd_pr__nfet_01v8[ig]
Warning: unrecognized variable - @m.xm95.msky130_fd_pr__nfet_01v8[ib]
Warning: unrecognized variable - @m.xm96.msky130_fd_pr__nfet_01v8[is]
Warning: unrecognized variable - @m.xm96.msky130_fd_pr__nfet_01v8[ig]
Warning: unrecognized variable - @m.xm96.msky130_fd_pr__nfet_01v8[ib]
Warning: unrecognized variable - @m.xm97.msky130_fd_pr__nfet_01v8[is]
Warning: unrecognized variable - @m.xm97.msky130_fd_pr__nfet_01v8[ig]
Warning: unrecognized variable - @m.xm97.msky130_fd_pr__nfet_01v8[ib]
Warning: unrecognized variable - @m.xm98.msky130_fd_pr__nfet_01v8[is]
Warning: unrecognized variable - @m.xm98.msky130_fd_pr__nfet_01v8[ig]
Warning: unrecognized variable - @m.xm98.msky130_fd_pr__nfet_01v8[ib]
Warning: unrecognized variable - @m.xm99.msky130_fd_pr__nfet_01v8[is]
Warning: unrecognized variable - @m.xm99.msky130_fd_pr__nfet_01v8[ig]
Warning: unrecognized variable - @m.xm99.msky130_fd_pr__nfet_01v8[ib]
Warning: unrecognized variable - @m.xm100.msky130_fd_pr__nfet_01v8[is]
Warning: unrecognized variable - @m.xm100.msky130_fd_pr__nfet_01v8[ig]
Warning: unrecognized variable - @m.xm100.msky130_fd_pr__nfet_01v8[ib]
Warning: unrecognized variable - @m.xm101.msky130_fd_pr__nfet_01v8[is]
Warning: unrecognized variable - @m.xm101.msky130_fd_pr__nfet_01v8[ig]
Warning: unrecognized variable - @m.xm101.msky130_fd_pr__nfet_01v8[ib]
Warning: unrecognized variable - @m.xm102.msky130_fd_pr__nfet_01v8[is]
Warning: unrecognized variable - @m.xm102.msky130_fd_pr__nfet_01v8[ig]
Warning: unrecognized variable - @m.xm102.msky130_fd_pr__nfet_01v8[ib]
Warning: unrecognized variable - @m.xm103.msky130_fd_pr__nfet_01v8[is]
Warning: unrecognized variable - @m.xm103.msky130_fd_pr__nfet_01v8[ig]
Warning: unrecognized variable - @m.xm103.msky130_fd_pr__nfet_01v8[ib]
Warning: unrecognized variable - @m.xm104.msky130_fd_pr__nfet_01v8[is]
Warning: unrecognized variable - @m.xm104.msky130_fd_pr__nfet_01v8[ig]
Warning: unrecognized variable - @m.xm104.msky130_fd_pr__nfet_01v8[ib]
Warning: unrecognized variable - @m.xm105.msky130_fd_pr__nfet_01v8[is]
Warning: unrecognized variable - @m.xm105.msky130_fd_pr__nfet_01v8[ig]
Warning: unrecognized variable - @m.xm105.msky130_fd_pr__nfet_01v8[ib]
Warning: unrecognized variable - @m.xm106.msky130_fd_pr__nfet_01v8[is]
Warning: unrecognized variable - @m.xm106.msky130_fd_pr__nfet_01v8[ig]
Warning: unrecognized variable - @m.xm106.msky130_fd_pr__nfet_01v8[ib]
Warning: unrecognized variable - @m.xm107.msky130_fd_pr__nfet_01v8[is]
Warning: unrecognized variable - @m.xm107.msky130_fd_pr__nfet_01v8[ig]
Warning: unrecognized variable - @m.xm107.msky130_fd_pr__nfet_01v8[ib]
Warning: unrecognized variable - @m.xm108.msky130_fd_pr__nfet_01v8[is]
Warning: unrecognized variable - @m.xm108.msky130_fd_pr__nfet_01v8[ig]
Warning: unrecognized variable - @m.xm108.msky130_fd_pr__nfet_01v8[ib]
Warning: unrecognized variable - @m.xm109.msky130_fd_pr__nfet_01v8[is]
Warning: unrecognized variable - @m.xm109.msky130_fd_pr__nfet_01v8[ig]
Warning: unrecognized variable - @m.xm109.msky130_fd_pr__nfet_01v8[ib]
Warning: unrecognized variable - @m.xm110.msky130_fd_pr__nfet_01v8[is]
Warning: unrecognized variable - @m.xm110.msky130_fd_pr__nfet_01v8[ig]
Warning: unrecognized variable - @m.xm110.msky130_fd_pr__nfet_01v8[ib]
Warning: unrecognized variable - @m.xm111.msky130_fd_pr__nfet_01v8[is]
Warning: unrecognized variable - @m.xm111.msky130_fd_pr__nfet_01v8[ig]
Warning: unrecognized variable - @m.xm111.msky130_fd_pr__nfet_01v8[ib]
Warning: unrecognized variable - @m.xm112.msky130_fd_pr__nfet_01v8[is]
Warning: unrecognized variable - @m.xm112.msky130_fd_pr__nfet_01v8[ig]
Warning: unrecognized variable - @m.xm112.msky130_fd_pr__nfet_01v8[ib]
Warning: unrecognized variable - @m.xm113.msky130_fd_pr__nfet_01v8[is]
Warning: unrecognized variable - @m.xm113.msky130_fd_pr__nfet_01v8[ig]
Warning: unrecognized variable - @m.xm113.msky130_fd_pr__nfet_01v8[ib]
Warning: unrecognized variable - @m.xm114.msky130_fd_pr__nfet_01v8[is]
Warning: unrecognized variable - @m.xm114.msky130_fd_pr__nfet_01v8[ig]
Warning: unrecognized variable - @m.xm114.msky130_fd_pr__nfet_01v8[ib]
Warning: unrecognized variable - @m.xm115.msky130_fd_pr__nfet_01v8[is]
Warning: unrecognized variable - @m.xm115.msky130_fd_pr__nfet_01v8[ig]
Warning: unrecognized variable - @m.xm115.msky130_fd_pr__nfet_01v8[ib]
Warning: unrecognized variable - @m.xm116.msky130_fd_pr__nfet_01v8[is]
Warning: unrecognized variable - @m.xm116.msky130_fd_pr__nfet_01v8[ig]
Warning: unrecognized variable - @m.xm116.msky130_fd_pr__nfet_01v8[ib]
Warning: unrecognized variable - @m.xm117.msky130_fd_pr__nfet_01v8[is]
Warning: unrecognized variable - @m.xm117.msky130_fd_pr__nfet_01v8[ig]
Warning: unrecognized variable - @m.xm117.msky130_fd_pr__nfet_01v8[ib]
Warning: unrecognized variable - @m.xm118.msky130_fd_pr__nfet_01v8[is]
Warning: unrecognized variable - @m.xm118.msky130_fd_pr__nfet_01v8[ig]
Warning: unrecognized variable - @m.xm118.msky130_fd_pr__nfet_01v8[ib]
Warning: unrecognized variable - @m.xm119.msky130_fd_pr__nfet_01v8[is]
Warning: unrecognized variable - @m.xm119.msky130_fd_pr__nfet_01v8[ig]
Warning: unrecognized variable - @m.xm119.msky130_fd_pr__nfet_01v8[ib]
Warning: unrecognized variable - @m.xm120.msky130_fd_pr__nfet_01v8[is]
Warning: unrecognized variable - @m.xm120.msky130_fd_pr__nfet_01v8[ig]
Warning: unrecognized variable - @m.xm120.msky130_fd_pr__nfet_01v8[ib]
Warning: unrecognized variable - @m.xm121.msky130_fd_pr__nfet_01v8[is]
Warning: unrecognized variable - @m.xm121.msky130_fd_pr__nfet_01v8[ig]
Warning: unrecognized variable - @m.xm121.msky130_fd_pr__nfet_01v8[ib]
Warning: unrecognized variable - @m.xm122.msky130_fd_pr__nfet_01v8[is]
Warning: unrecognized variable - @m.xm122.msky130_fd_pr__nfet_01v8[ig]
Warning: unrecognized variable - @m.xm122.msky130_fd_pr__nfet_01v8[ib]
Warning: unrecognized variable - @m.xm123.msky130_fd_pr__nfet_01v8[is]
Warning: unrecognized variable - @m.xm123.msky130_fd_pr__nfet_01v8[ig]
Warning: unrecognized variable - @m.xm123.msky130_fd_pr__nfet_01v8[ib]
Warning: unrecognized variable - @m.xm124.msky130_fd_pr__nfet_01v8[is]
Warning: unrecognized variable - @m.xm124.msky130_fd_pr__nfet_01v8[ig]
Warning: unrecognized variable - @m.xm124.msky130_fd_pr__nfet_01v8[ib]
Warning: unrecognized variable - @m.xm125.msky130_fd_pr__nfet_01v8[is]
Warning: unrecognized variable - @m.xm125.msky130_fd_pr__nfet_01v8[ig]
Warning: unrecognized variable - @m.xm125.msky130_fd_pr__nfet_01v8[ib]
Warning: unrecognized variable - @m.xm126.msky130_fd_pr__nfet_01v8[is]
Warning: unrecognized variable - @m.xm126.msky130_fd_pr__nfet_01v8[ig]
Warning: unrecognized variable - @m.xm126.msky130_fd_pr__nfet_01v8[ib]
Warning: unrecognized variable - @m.xm127.msky130_fd_pr__nfet_01v8[is]
Warning: unrecognized variable - @m.xm127.msky130_fd_pr__nfet_01v8[ig]
Warning: unrecognized variable - @m.xm127.msky130_fd_pr__nfet_01v8[ib]
Warning: unrecognized variable - @m.xm128.msky130_fd_pr__nfet_01v8[is]
Warning: unrecognized variable - @m.xm128.msky130_fd_pr__nfet_01v8[ig]
Warning: unrecognized variable - @m.xm128.msky130_fd_pr__nfet_01v8[ib]
Warning: unrecognized variable - @m.xm129.msky130_fd_pr__nfet_01v8[is]
Warning: unrecognized variable - @m.xm129.msky130_fd_pr__nfet_01v8[ig]
Warning: unrecognized variable - @m.xm129.msky130_fd_pr__nfet_01v8[ib]
Warning: unrecognized variable - @m.xm130.msky130_fd_pr__nfet_01v8[is]
Warning: unrecognized variable - @m.xm130.msky130_fd_pr__nfet_01v8[ig]
Warning: unrecognized variable - @m.xm130.msky130_fd_pr__nfet_01v8[ib]
Warning: unrecognized variable - @m.xm131.msky130_fd_pr__nfet_01v8[is]
Warning: unrecognized variable - @m.xm131.msky130_fd_pr__nfet_01v8[ig]
Warning: unrecognized variable - @m.xm131.msky130_fd_pr__nfet_01v8[ib]
Warning: unrecognized variable - @m.xm132.msky130_fd_pr__nfet_01v8[is]
Warning: unrecognized variable - @m.xm132.msky130_fd_pr__nfet_01v8[ig]
Warning: unrecognized variable - @m.xm132.msky130_fd_pr__nfet_01v8[ib]
Warning: unrecognized variable - @m.xm133.msky130_fd_pr__nfet_01v8[is]
Warning: unrecognized variable - @m.xm133.msky130_fd_pr__nfet_01v8[ig]
Warning: unrecognized variable - @m.xm133.msky130_fd_pr__nfet_01v8[ib]
Warning: unrecognized variable - @m.xm134.msky130_fd_pr__nfet_01v8[is]
Warning: unrecognized variable - @m.xm134.msky130_fd_pr__nfet_01v8[ig]
Warning: unrecognized variable - @m.xm134.msky130_fd_pr__nfet_01v8[ib]
Warning: unrecognized variable - @m.xm135.msky130_fd_pr__nfet_01v8[is]
Warning: unrecognized variable - @m.xm135.msky130_fd_pr__nfet_01v8[ig]
Warning: unrecognized variable - @m.xm135.msky130_fd_pr__nfet_01v8[ib]
Warning: unrecognized variable - @m.xm136.msky130_fd_pr__nfet_01v8[is]
Warning: unrecognized variable - @m.xm136.msky130_fd_pr__nfet_01v8[ig]
Warning: unrecognized variable - @m.xm136.msky130_fd_pr__nfet_01v8[ib]
Warning: unrecognized variable - @m.xm137.msky130_fd_pr__nfet_01v8[is]
Warning: unrecognized variable - @m.xm137.msky130_fd_pr__nfet_01v8[ig]
Warning: unrecognized variable - @m.xm137.msky130_fd_pr__nfet_01v8[ib]
Warning: unrecognized variable - @m.xm138.msky130_fd_pr__nfet_01v8[is]
Warning: unrecognized variable - @m.xm138.msky130_fd_pr__nfet_01v8[ig]
Warning: unrecognized variable - @m.xm138.msky130_fd_pr__nfet_01v8[ib]
Warning: unrecognized variable - @m.xm139.msky130_fd_pr__nfet_01v8[is]
Warning: unrecognized variable - @m.xm139.msky130_fd_pr__nfet_01v8[ig]
Warning: unrecognized variable - @m.xm139.msky130_fd_pr__nfet_01v8[ib]
Warning: unrecognized variable - @m.xm140.msky130_fd_pr__nfet_01v8[is]
Warning: unrecognized variable - @m.xm140.msky130_fd_pr__nfet_01v8[ig]
Warning: unrecognized variable - @m.xm140.msky130_fd_pr__nfet_01v8[ib]
Warning: unrecognized variable - @m.xm141.msky130_fd_pr__nfet_01v8[is]
Warning: unrecognized variable - @m.xm141.msky130_fd_pr__nfet_01v8[ig]
Warning: unrecognized variable - @m.xm141.msky130_fd_pr__nfet_01v8[ib]
Warning: unrecognized variable - @m.xm142.msky130_fd_pr__nfet_01v8[is]
Warning: unrecognized variable - @m.xm142.msky130_fd_pr__nfet_01v8[ig]
Warning: unrecognized variable - @m.xm142.msky130_fd_pr__nfet_01v8[ib]
Warning: unrecognized variable - @m.xm143.msky130_fd_pr__nfet_01v8[is]
Warning: unrecognized variable - @m.xm143.msky130_fd_pr__nfet_01v8[ig]
Warning: unrecognized variable - @m.xm143.msky130_fd_pr__nfet_01v8[ib]
Warning: unrecognized variable - @m.xm144.msky130_fd_pr__nfet_01v8[is]
Warning: unrecognized variable - @m.xm144.msky130_fd_pr__nfet_01v8[ig]
Warning: unrecognized variable - @m.xm144.msky130_fd_pr__nfet_01v8[ib]
Warning: unrecognized variable - @m.xm145.msky130_fd_pr__nfet_01v8[is]
Warning: unrecognized variable - @m.xm145.msky130_fd_pr__nfet_01v8[ig]
Warning: unrecognized variable - @m.xm145.msky130_fd_pr__nfet_01v8[ib]
Warning: unrecognized variable - @m.xm146.msky130_fd_pr__nfet_01v8[is]
Warning: unrecognized variable - @m.xm146.msky130_fd_pr__nfet_01v8[ig]
Warning: unrecognized variable - @m.xm146.msky130_fd_pr__nfet_01v8[ib]
Warning: unrecognized variable - @m.xm147.msky130_fd_pr__nfet_01v8[is]
Warning: unrecognized variable - @m.xm147.msky130_fd_pr__nfet_01v8[ig]
Warning: unrecognized variable - @m.xm147.msky130_fd_pr__nfet_01v8[ib]
Warning: unrecognized variable - @m.xm148.msky130_fd_pr__nfet_01v8[is]
Warning: unrecognized variable - @m.xm148.msky130_fd_pr__nfet_01v8[ig]
Warning: unrecognized variable - @m.xm148.msky130_fd_pr__nfet_01v8[ib]
Warning: unrecognized variable - @m.xm149.msky130_fd_pr__nfet_01v8[is]
Warning: unrecognized variable - @m.xm149.msky130_fd_pr__nfet_01v8[ig]
Warning: unrecognized variable - @m.xm149.msky130_fd_pr__nfet_01v8[ib]
Warning: unrecognized variable - @m.xm150.msky130_fd_pr__nfet_01v8[is]
Warning: unrecognized variable - @m.xm150.msky130_fd_pr__nfet_01v8[ig]
Warning: unrecognized variable - @m.xm150.msky130_fd_pr__nfet_01v8[ib]
Warning: unrecognized variable - @m.xm151.msky130_fd_pr__nfet_01v8[is]
Warning: unrecognized variable - @m.xm151.msky130_fd_pr__nfet_01v8[ig]
Warning: unrecognized variable - @m.xm151.msky130_fd_pr__nfet_01v8[ib]
Warning: unrecognized variable - @m.xm152.msky130_fd_pr__nfet_01v8[is]
Warning: unrecognized variable - @m.xm152.msky130_fd_pr__nfet_01v8[ig]
Warning: unrecognized variable - @m.xm152.msky130_fd_pr__nfet_01v8[ib]
Warning: unrecognized variable - @m.xm153.msky130_fd_pr__nfet_01v8[is]
Warning: unrecognized variable - @m.xm153.msky130_fd_pr__nfet_01v8[ig]
Warning: unrecognized variable - @m.xm153.msky130_fd_pr__nfet_01v8[ib]
Warning: unrecognized variable - @m.xm154.msky130_fd_pr__nfet_01v8[is]
Warning: unrecognized variable - @m.xm154.msky130_fd_pr__nfet_01v8[ig]
Warning: unrecognized variable - @m.xm154.msky130_fd_pr__nfet_01v8[ib]
Warning: unrecognized variable - @m.xm155.msky130_fd_pr__nfet_01v8[is]
Warning: unrecognized variable - @m.xm155.msky130_fd_pr__nfet_01v8[ig]
Warning: unrecognized variable - @m.xm155.msky130_fd_pr__nfet_01v8[ib]
Warning: unrecognized variable - @m.xm156.msky130_fd_pr__nfet_01v8[is]
Warning: unrecognized variable - @m.xm156.msky130_fd_pr__nfet_01v8[ig]
Warning: unrecognized variable - @m.xm156.msky130_fd_pr__nfet_01v8[ib]
Warning: unrecognized variable - @m.xm157.msky130_fd_pr__nfet_01v8[is]
Warning: unrecognized variable - @m.xm157.msky130_fd_pr__nfet_01v8[ig]
Warning: unrecognized variable - @m.xm157.msky130_fd_pr__nfet_01v8[ib]
Warning: unrecognized variable - @m.xm158.msky130_fd_pr__nfet_01v8[is]
Warning: unrecognized variable - @m.xm158.msky130_fd_pr__nfet_01v8[ig]
Warning: unrecognized variable - @m.xm158.msky130_fd_pr__nfet_01v8[ib]
Warning: unrecognized variable - @m.xm159.msky130_fd_pr__nfet_01v8[is]
Warning: unrecognized variable - @m.xm159.msky130_fd_pr__nfet_01v8[ig]
Warning: unrecognized variable - @m.xm159.msky130_fd_pr__nfet_01v8[ib]
Warning: unrecognized variable - @m.xm160.msky130_fd_pr__nfet_01v8[is]
Warning: unrecognized variable - @m.xm160.msky130_fd_pr__nfet_01v8[ig]
Warning: unrecognized variable - @m.xm160.msky130_fd_pr__nfet_01v8[ib]
Warning: unrecognized variable - @m.xm161.msky130_fd_pr__nfet_01v8[is]
Warning: unrecognized variable - @m.xm161.msky130_fd_pr__nfet_01v8[ig]
Warning: unrecognized variable - @m.xm161.msky130_fd_pr__nfet_01v8[ib]
Warning: unrecognized variable - @m.xm162.msky130_fd_pr__nfet_01v8[is]
Warning: unrecognized variable - @m.xm162.msky130_fd_pr__nfet_01v8[ig]
Warning: unrecognized variable - @m.xm162.msky130_fd_pr__nfet_01v8[ib]
Warning: unrecognized variable - @m.xm163.msky130_fd_pr__nfet_01v8[is]
Warning: unrecognized variable - @m.xm163.msky130_fd_pr__nfet_01v8[ig]
Warning: unrecognized variable - @m.xm163.msky130_fd_pr__nfet_01v8[ib]
Warning: unrecognized variable - @m.xm164.msky130_fd_pr__nfet_01v8[is]
Warning: unrecognized variable - @m.xm164.msky130_fd_pr__nfet_01v8[ig]
Warning: unrecognized variable - @m.xm164.msky130_fd_pr__nfet_01v8[ib]
Warning: unrecognized variable - @m.xm165.msky130_fd_pr__nfet_01v8[is]
Warning: unrecognized variable - @m.xm165.msky130_fd_pr__nfet_01v8[ig]
Warning: unrecognized variable - @m.xm165.msky130_fd_pr__nfet_01v8[ib]
Warning: unrecognized variable - @m.xm166.msky130_fd_pr__nfet_01v8[is]
Warning: unrecognized variable - @m.xm166.msky130_fd_pr__nfet_01v8[ig]
Warning: unrecognized variable - @m.xm166.msky130_fd_pr__nfet_01v8[ib]
Warning: unrecognized variable - @m.xm167.msky130_fd_pr__nfet_01v8[is]
Warning: unrecognized variable - @m.xm167.msky130_fd_pr__nfet_01v8[ig]
Warning: unrecognized variable - @m.xm167.msky130_fd_pr__nfet_01v8[ib]
Warning: unrecognized variable - @m.xm168.msky130_fd_pr__nfet_01v8[is]
Warning: unrecognized variable - @m.xm168.msky130_fd_pr__nfet_01v8[ig]
Warning: unrecognized variable - @m.xm168.msky130_fd_pr__nfet_01v8[ib]
Warning: unrecognized variable - @m.xm169.msky130_fd_pr__nfet_01v8[is]
Warning: unrecognized variable - @m.xm169.msky130_fd_pr__nfet_01v8[ig]
Warning: unrecognized variable - @m.xm169.msky130_fd_pr__nfet_01v8[ib]
Warning: unrecognized variable - @m.xm170.msky130_fd_pr__nfet_01v8[is]
Warning: unrecognized variable - @m.xm170.msky130_fd_pr__nfet_01v8[ig]
Warning: unrecognized variable - @m.xm170.msky130_fd_pr__nfet_01v8[ib]
Warning: unrecognized variable - @m.xm171.msky130_fd_pr__nfet_01v8[is]
Warning: unrecognized variable - @m.xm171.msky130_fd_pr__nfet_01v8[ig]
Warning: unrecognized variable - @m.xm171.msky130_fd_pr__nfet_01v8[ib]
Warning: unrecognized variable - @m.xm172.msky130_fd_pr__nfet_01v8[is]
Warning: unrecognized variable - @m.xm172.msky130_fd_pr__nfet_01v8[ig]
Warning: unrecognized variable - @m.xm172.msky130_fd_pr__nfet_01v8[ib]
Warning: unrecognized variable - @m.xm173.msky130_fd_pr__nfet_01v8[is]
Warning: unrecognized variable - @m.xm173.msky130_fd_pr__nfet_01v8[ig]
Warning: unrecognized variable - @m.xm173.msky130_fd_pr__nfet_01v8[ib]
Warning: unrecognized variable - @m.xm174.msky130_fd_pr__nfet_01v8[is]
Warning: unrecognized variable - @m.xm174.msky130_fd_pr__nfet_01v8[ig]
Warning: unrecognized variable - @m.xm174.msky130_fd_pr__nfet_01v8[ib]
Warning: unrecognized variable - @m.xm175.msky130_fd_pr__nfet_01v8[is]
Warning: unrecognized variable - @m.xm175.msky130_fd_pr__nfet_01v8[ig]
Warning: unrecognized variable - @m.xm175.msky130_fd_pr__nfet_01v8[ib]
Warning: unrecognized variable - @m.xm176.msky130_fd_pr__nfet_01v8[is]
Warning: unrecognized variable - @m.xm176.msky130_fd_pr__nfet_01v8[ig]
Warning: unrecognized variable - @m.xm176.msky130_fd_pr__nfet_01v8[ib]
Warning: unrecognized variable - @m.xm177.msky130_fd_pr__nfet_01v8[is]
Warning: unrecognized variable - @m.xm177.msky130_fd_pr__nfet_01v8[ig]
Warning: unrecognized variable - @m.xm177.msky130_fd_pr__nfet_01v8[ib]
Warning: unrecognized variable - @m.xm178.msky130_fd_pr__nfet_01v8[is]
Warning: unrecognized variable - @m.xm178.msky130_fd_pr__nfet_01v8[ig]
Warning: unrecognized variable - @m.xm178.msky130_fd_pr__nfet_01v8[ib]
Warning: unrecognized variable - @m.xm179.msky130_fd_pr__nfet_01v8[is]
Warning: unrecognized variable - @m.xm179.msky130_fd_pr__nfet_01v8[ig]
Warning: unrecognized variable - @m.xm179.msky130_fd_pr__nfet_01v8[ib]
Warning: unrecognized variable - @m.xm180.msky130_fd_pr__nfet_01v8[is]
Warning: unrecognized variable - @m.xm180.msky130_fd_pr__nfet_01v8[ig]
Warning: unrecognized variable - @m.xm180.msky130_fd_pr__nfet_01v8[ib]
Warning: unrecognized variable - @m.xm181.msky130_fd_pr__nfet_01v8[is]
Warning: unrecognized variable - @m.xm181.msky130_fd_pr__nfet_01v8[ig]
Warning: unrecognized variable - @m.xm181.msky130_fd_pr__nfet_01v8[ib]
Warning: unrecognized variable - @m.xm182.msky130_fd_pr__nfet_01v8[is]
Warning: unrecognized variable - @m.xm182.msky130_fd_pr__nfet_01v8[ig]
Warning: unrecognized variable - @m.xm182.msky130_fd_pr__nfet_01v8[ib]
Warning: unrecognized variable - @m.xm183.msky130_fd_pr__nfet_01v8[is]
Warning: unrecognized variable - @m.xm183.msky130_fd_pr__nfet_01v8[ig]
Warning: unrecognized variable - @m.xm183.msky130_fd_pr__nfet_01v8[ib]
Warning: unrecognized variable - @m.xm184.msky130_fd_pr__nfet_01v8[is]
Warning: unrecognized variable - @m.xm184.msky130_fd_pr__nfet_01v8[ig]
Warning: unrecognized variable - @m.xm184.msky130_fd_pr__nfet_01v8[ib]
Warning: unrecognized variable - @m.xm185.msky130_fd_pr__nfet_01v8[is]
Warning: unrecognized variable - @m.xm185.msky130_fd_pr__nfet_01v8[ig]
Warning: unrecognized variable - @m.xm185.msky130_fd_pr__nfet_01v8[ib]
Warning: unrecognized variable - @m.xm186.msky130_fd_pr__nfet_01v8[is]
Warning: unrecognized variable - @m.xm186.msky130_fd_pr__nfet_01v8[ig]
Warning: unrecognized variable - @m.xm186.msky130_fd_pr__nfet_01v8[ib]
Warning: unrecognized variable - @m.xm187.msky130_fd_pr__nfet_01v8[is]
Warning: unrecognized variable - @m.xm187.msky130_fd_pr__nfet_01v8[ig]
Warning: unrecognized variable - @m.xm187.msky130_fd_pr__nfet_01v8[ib]
Warning: unrecognized variable - @m.xm188.msky130_fd_pr__nfet_01v8[is]
Warning: unrecognized variable - @m.xm188.msky130_fd_pr__nfet_01v8[ig]
Warning: unrecognized variable - @m.xm188.msky130_fd_pr__nfet_01v8[ib]
Warning: unrecognized variable - @m.xm189.msky130_fd_pr__nfet_01v8[is]
Warning: unrecognized variable - @m.xm189.msky130_fd_pr__nfet_01v8[ig]
Warning: unrecognized variable - @m.xm189.msky130_fd_pr__nfet_01v8[ib]
Warning: unrecognized variable - @m.xm190.msky130_fd_pr__nfet_01v8[is]
Warning: unrecognized variable - @m.xm190.msky130_fd_pr__nfet_01v8[ig]
Warning: unrecognized variable - @m.xm190.msky130_fd_pr__nfet_01v8[ib]
Warning: unrecognized variable - @m.xm191.msky130_fd_pr__nfet_01v8[is]
Warning: unrecognized variable - @m.xm191.msky130_fd_pr__nfet_01v8[ig]
Warning: unrecognized variable - @m.xm191.msky130_fd_pr__nfet_01v8[ib]
Warning: unrecognized variable - @m.xm192.msky130_fd_pr__nfet_01v8[is]
Warning: unrecognized variable - @m.xm192.msky130_fd_pr__nfet_01v8[ig]
Warning: unrecognized variable - @m.xm192.msky130_fd_pr__nfet_01v8[ib]
Warning: unrecognized variable - @m.xm193.msky130_fd_pr__nfet_01v8[is]
Warning: unrecognized variable - @m.xm193.msky130_fd_pr__nfet_01v8[ig]
Warning: unrecognized variable - @m.xm193.msky130_fd_pr__nfet_01v8[ib]
Warning: unrecognized variable - @m.xm194.msky130_fd_pr__nfet_01v8[is]
Warning: unrecognized variable - @m.xm194.msky130_fd_pr__nfet_01v8[ig]
Warning: unrecognized variable - @m.xm194.msky130_fd_pr__nfet_01v8[ib]
Warning: unrecognized variable - @m.xm195.msky130_fd_pr__nfet_01v8[is]
Warning: unrecognized variable - @m.xm195.msky130_fd_pr__nfet_01v8[ig]
Warning: unrecognized variable - @m.xm195.msky130_fd_pr__nfet_01v8[ib]
Warning: unrecognized variable - @m.xm196.msky130_fd_pr__nfet_01v8[is]
Warning: unrecognized variable - @m.xm196.msky130_fd_pr__nfet_01v8[ig]
Warning: unrecognized variable - @m.xm196.msky130_fd_pr__nfet_01v8[ib]
Warning: unrecognized variable - @m.xm197.msky130_fd_pr__nfet_01v8[is]
Warning: unrecognized variable - @m.xm197.msky130_fd_pr__nfet_01v8[ig]
Warning: unrecognized variable - @m.xm197.msky130_fd_pr__nfet_01v8[ib]
Warning: unrecognized variable - @m.xm198.msky130_fd_pr__nfet_01v8[is]
Warning: unrecognized variable - @m.xm198.msky130_fd_pr__nfet_01v8[ig]
Warning: unrecognized variable - @m.xm198.msky130_fd_pr__nfet_01v8[ib]
Warning: unrecognized variable - @m.xm199.msky130_fd_pr__nfet_01v8[is]
Warning: unrecognized variable - @m.xm199.msky130_fd_pr__nfet_01v8[ig]
Warning: unrecognized variable - @m.xm199.msky130_fd_pr__nfet_01v8[ib]
Warning: unrecognized variable - @m.xm200.msky130_fd_pr__nfet_01v8[is]
Warning: unrecognized variable - @m.xm200.msky130_fd_pr__nfet_01v8[ig]
Warning: unrecognized variable - @m.xm200.msky130_fd_pr__nfet_01v8[ib]
Warning: unrecognized variable - @m.xm201.msky130_fd_pr__nfet_01v8[is]
Warning: unrecognized variable - @m.xm201.msky130_fd_pr__nfet_01v8[ig]
Warning: unrecognized variable - @m.xm201.msky130_fd_pr__nfet_01v8[ib]
Warning: unrecognized variable - @m.xm202.msky130_fd_pr__nfet_01v8[is]
Warning: unrecognized variable - @m.xm202.msky130_fd_pr__nfet_01v8[ig]
Warning: unrecognized variable - @m.xm202.msky130_fd_pr__nfet_01v8[ib]
Warning: unrecognized variable - @m.xm203.msky130_fd_pr__nfet_01v8[is]
Warning: unrecognized variable - @m.xm203.msky130_fd_pr__nfet_01v8[ig]
Warning: unrecognized variable - @m.xm203.msky130_fd_pr__nfet_01v8[ib]
Warning: unrecognized variable - @m.xm204.msky130_fd_pr__nfet_01v8[is]
Warning: unrecognized variable - @m.xm204.msky130_fd_pr__nfet_01v8[ig]
Warning: unrecognized variable - @m.xm204.msky130_fd_pr__nfet_01v8[ib]
Warning: unrecognized variable - @m.xm205.msky130_fd_pr__nfet_01v8[is]
Warning: unrecognized variable - @m.xm205.msky130_fd_pr__nfet_01v8[ig]
Warning: unrecognized variable - @m.xm205.msky130_fd_pr__nfet_01v8[ib]
Warning: unrecognized variable - @m.xm206.msky130_fd_pr__nfet_01v8[is]
Warning: unrecognized variable - @m.xm206.msky130_fd_pr__nfet_01v8[ig]
Warning: unrecognized variable - @m.xm206.msky130_fd_pr__nfet_01v8[ib]
Warning: unrecognized variable - @m.xm207.msky130_fd_pr__nfet_01v8[is]
Warning: unrecognized variable - @m.xm207.msky130_fd_pr__nfet_01v8[ig]
Warning: unrecognized variable - @m.xm207.msky130_fd_pr__nfet_01v8[ib]
Warning: unrecognized variable - @m.xm208.msky130_fd_pr__nfet_01v8[is]
Warning: unrecognized variable - @m.xm208.msky130_fd_pr__nfet_01v8[ig]
Warning: unrecognized variable - @m.xm208.msky130_fd_pr__nfet_01v8[ib]
Warning: unrecognized variable - @m.xm209.msky130_fd_pr__nfet_01v8[is]
Warning: unrecognized variable - @m.xm209.msky130_fd_pr__nfet_01v8[ig]
Warning: unrecognized variable - @m.xm209.msky130_fd_pr__nfet_01v8[ib]
Warning: unrecognized variable - @m.xm210.msky130_fd_pr__nfet_01v8[is]
Warning: unrecognized variable - @m.xm210.msky130_fd_pr__nfet_01v8[ig]
Warning: unrecognized variable - @m.xm210.msky130_fd_pr__nfet_01v8[ib]
Warning: unrecognized variable - @m.xm211.msky130_fd_pr__nfet_01v8[is]
Warning: unrecognized variable - @m.xm211.msky130_fd_pr__nfet_01v8[ig]
Warning: unrecognized variable - @m.xm211.msky130_fd_pr__nfet_01v8[ib]
Warning: unrecognized variable - @m.xm212.msky130_fd_pr__nfet_01v8[is]
Warning: unrecognized variable - @m.xm212.msky130_fd_pr__nfet_01v8[ig]
Warning: unrecognized variable - @m.xm212.msky130_fd_pr__nfet_01v8[ib]
Warning: unrecognized variable - @m.xm213.msky130_fd_pr__nfet_01v8[is]
Warning: unrecognized variable - @m.xm213.msky130_fd_pr__nfet_01v8[ig]
Warning: unrecognized variable - @m.xm213.msky130_fd_pr__nfet_01v8[ib]
Warning: unrecognized variable - @m.xm214.msky130_fd_pr__nfet_01v8[is]
Warning: unrecognized variable - @m.xm214.msky130_fd_pr__nfet_01v8[ig]
Warning: unrecognized variable - @m.xm214.msky130_fd_pr__nfet_01v8[ib]
Warning: unrecognized variable - @m.xm215.msky130_fd_pr__nfet_01v8[is]
Warning: unrecognized variable - @m.xm215.msky130_fd_pr__nfet_01v8[ig]
Warning: unrecognized variable - @m.xm215.msky130_fd_pr__nfet_01v8[ib]
Warning: unrecognized variable - @m.xm216.msky130_fd_pr__nfet_01v8[is]
Warning: unrecognized variable - @m.xm216.msky130_fd_pr__nfet_01v8[ig]
Warning: unrecognized variable - @m.xm216.msky130_fd_pr__nfet_01v8[ib]
Warning: unrecognized variable - @m.xm217.msky130_fd_pr__nfet_01v8[is]
Warning: unrecognized variable - @m.xm217.msky130_fd_pr__nfet_01v8[ig]
Warning: unrecognized variable - @m.xm217.msky130_fd_pr__nfet_01v8[ib]
Warning: unrecognized variable - @m.xm218.msky130_fd_pr__nfet_01v8[is]
Warning: unrecognized variable - @m.xm218.msky130_fd_pr__nfet_01v8[ig]
Warning: unrecognized variable - @m.xm218.msky130_fd_pr__nfet_01v8[ib]
Warning: unrecognized variable - @m.xm219.msky130_fd_pr__nfet_01v8[is]
Warning: unrecognized variable - @m.xm219.msky130_fd_pr__nfet_01v8[ig]
Warning: unrecognized variable - @m.xm219.msky130_fd_pr__nfet_01v8[ib]
Warning: unrecognized variable - @m.xm220.msky130_fd_pr__nfet_01v8[is]
Warning: unrecognized variable - @m.xm220.msky130_fd_pr__nfet_01v8[ig]
Warning: unrecognized variable - @m.xm220.msky130_fd_pr__nfet_01v8[ib]
Warning: unrecognized variable - @m.xm221.msky130_fd_pr__nfet_01v8[is]
Warning: unrecognized variable - @m.xm221.msky130_fd_pr__nfet_01v8[ig]
Warning: unrecognized variable - @m.xm221.msky130_fd_pr__nfet_01v8[ib]
Warning: unrecognized variable - @m.xm222.msky130_fd_pr__nfet_01v8[is]
Warning: unrecognized variable - @m.xm222.msky130_fd_pr__nfet_01v8[ig]
Warning: unrecognized variable - @m.xm222.msky130_fd_pr__nfet_01v8[ib]
Warning: unrecognized variable - @m.xm223.msky130_fd_pr__nfet_01v8[is]
Warning: unrecognized variable - @m.xm223.msky130_fd_pr__nfet_01v8[ig]
Warning: unrecognized variable - @m.xm223.msky130_fd_pr__nfet_01v8[ib]
Warning: unrecognized variable - @m.xm224.msky130_fd_pr__nfet_01v8[is]
Warning: unrecognized variable - @m.xm224.msky130_fd_pr__nfet_01v8[ig]
Warning: unrecognized variable - @m.xm224.msky130_fd_pr__nfet_01v8[ib]
Warning: unrecognized variable - @m.xm225.msky130_fd_pr__nfet_01v8[is]
Warning: unrecognized variable - @m.xm225.msky130_fd_pr__nfet_01v8[ig]
Warning: unrecognized variable - @m.xm225.msky130_fd_pr__nfet_01v8[ib]
Warning: unrecognized variable - @m.xm226.msky130_fd_pr__nfet_01v8[is]
Warning: unrecognized variable - @m.xm226.msky130_fd_pr__nfet_01v8[ig]
Warning: unrecognized variable - @m.xm226.msky130_fd_pr__nfet_01v8[ib]
Warning: unrecognized variable - @m.xm227.msky130_fd_pr__nfet_01v8[is]
Warning: unrecognized variable - @m.xm227.msky130_fd_pr__nfet_01v8[ig]
Warning: unrecognized variable - @m.xm227.msky130_fd_pr__nfet_01v8[ib]
Warning: unrecognized variable - @m.xm228.msky130_fd_pr__nfet_01v8[is]
Warning: unrecognized variable - @m.xm228.msky130_fd_pr__nfet_01v8[ig]
Warning: unrecognized variable - @m.xm228.msky130_fd_pr__nfet_01v8[ib]
Warning: unrecognized variable - @m.xm229.msky130_fd_pr__nfet_01v8[is]
Warning: unrecognized variable - @m.xm229.msky130_fd_pr__nfet_01v8[ig]
Warning: unrecognized variable - @m.xm229.msky130_fd_pr__nfet_01v8[ib]
Warning: unrecognized variable - @m.xm230.msky130_fd_pr__nfet_01v8[is]
Warning: unrecognized variable - @m.xm230.msky130_fd_pr__nfet_01v8[ig]
Warning: unrecognized variable - @m.xm230.msky130_fd_pr__nfet_01v8[ib]
Warning: unrecognized variable - @m.xm231.msky130_fd_pr__nfet_01v8[is]
Warning: unrecognized variable - @m.xm231.msky130_fd_pr__nfet_01v8[ig]
Warning: unrecognized variable - @m.xm231.msky130_fd_pr__nfet_01v8[ib]
Warning: unrecognized variable - @m.xm232.msky130_fd_pr__nfet_01v8[is]
Warning: unrecognized variable - @m.xm232.msky130_fd_pr__nfet_01v8[ig]
Warning: unrecognized variable - @m.xm232.msky130_fd_pr__nfet_01v8[ib]
Warning: unrecognized variable - @m.xm233.msky130_fd_pr__nfet_01v8[is]
Warning: unrecognized variable - @m.xm233.msky130_fd_pr__nfet_01v8[ig]
Warning: unrecognized variable - @m.xm233.msky130_fd_pr__nfet_01v8[ib]
Warning: unrecognized variable - @m.xm234.msky130_fd_pr__nfet_01v8[is]
Warning: unrecognized variable - @m.xm234.msky130_fd_pr__nfet_01v8[ig]
Warning: unrecognized variable - @m.xm234.msky130_fd_pr__nfet_01v8[ib]
Warning: unrecognized variable - @m.xm235.msky130_fd_pr__nfet_01v8[is]
Warning: unrecognized variable - @m.xm235.msky130_fd_pr__nfet_01v8[ig]
Warning: unrecognized variable - @m.xm235.msky130_fd_pr__nfet_01v8[ib]
Warning: unrecognized variable - @m.xm236.msky130_fd_pr__nfet_01v8[is]
Warning: unrecognized variable - @m.xm236.msky130_fd_pr__nfet_01v8[ig]
Warning: unrecognized variable - @m.xm236.msky130_fd_pr__nfet_01v8[ib]
Warning: unrecognized variable - @m.xm237.msky130_fd_pr__nfet_01v8[is]
Warning: unrecognized variable - @m.xm237.msky130_fd_pr__nfet_01v8[ig]
Warning: unrecognized variable - @m.xm237.msky130_fd_pr__nfet_01v8[ib]
Warning: unrecognized variable - @m.xm238.msky130_fd_pr__nfet_01v8[is]
Warning: unrecognized variable - @m.xm238.msky130_fd_pr__nfet_01v8[ig]
Warning: unrecognized variable - @m.xm238.msky130_fd_pr__nfet_01v8[ib]
Warning: unrecognized variable - @m.xm239.msky130_fd_pr__nfet_01v8[is]
Warning: unrecognized variable - @m.xm239.msky130_fd_pr__nfet_01v8[ig]
Warning: unrecognized variable - @m.xm239.msky130_fd_pr__nfet_01v8[ib]
Warning: unrecognized variable - @m.xm240.msky130_fd_pr__nfet_01v8[is]
Warning: unrecognized variable - @m.xm240.msky130_fd_pr__nfet_01v8[ig]
Warning: unrecognized variable - @m.xm240.msky130_fd_pr__nfet_01v8[ib]
Warning: unrecognized variable - @m.xm241.msky130_fd_pr__nfet_01v8[is]
Warning: unrecognized variable - @m.xm241.msky130_fd_pr__nfet_01v8[ig]
Warning: unrecognized variable - @m.xm241.msky130_fd_pr__nfet_01v8[ib]
Warning: unrecognized variable - @m.xm242.msky130_fd_pr__nfet_01v8[is]
Warning: unrecognized variable - @m.xm242.msky130_fd_pr__nfet_01v8[ig]
Warning: unrecognized variable - @m.xm242.msky130_fd_pr__nfet_01v8[ib]
Warning: unrecognized variable - @m.xm243.msky130_fd_pr__nfet_01v8[is]
Warning: unrecognized variable - @m.xm243.msky130_fd_pr__nfet_01v8[ig]
Warning: unrecognized variable - @m.xm243.msky130_fd_pr__nfet_01v8[ib]
Warning: unrecognized variable - @m.xm244.msky130_fd_pr__nfet_01v8[is]
Warning: unrecognized variable - @m.xm244.msky130_fd_pr__nfet_01v8[ig]
Warning: unrecognized variable - @m.xm244.msky130_fd_pr__nfet_01v8[ib]
Warning: unrecognized variable - @m.xm245.msky130_fd_pr__nfet_01v8[is]
Warning: unrecognized variable - @m.xm245.msky130_fd_pr__nfet_01v8[ig]
Warning: unrecognized variable - @m.xm245.msky130_fd_pr__nfet_01v8[ib]
Warning: unrecognized variable - @m.xm246.msky130_fd_pr__nfet_01v8[is]
Warning: unrecognized variable - @m.xm246.msky130_fd_pr__nfet_01v8[ig]
Warning: unrecognized variable - @m.xm246.msky130_fd_pr__nfet_01v8[ib]
Warning: unrecognized variable - @m.xm247.msky130_fd_pr__nfet_01v8[is]
Warning: unrecognized variable - @m.xm247.msky130_fd_pr__nfet_01v8[ig]
Warning: unrecognized variable - @m.xm247.msky130_fd_pr__nfet_01v8[ib]
Warning: unrecognized variable - @m.xm248.msky130_fd_pr__nfet_01v8[is]
Warning: unrecognized variable - @m.xm248.msky130_fd_pr__nfet_01v8[ig]
Warning: unrecognized variable - @m.xm248.msky130_fd_pr__nfet_01v8[ib]
Warning: unrecognized variable - @m.xm249.msky130_fd_pr__nfet_01v8[is]
Warning: unrecognized variable - @m.xm249.msky130_fd_pr__nfet_01v8[ig]
Warning: unrecognized variable - @m.xm249.msky130_fd_pr__nfet_01v8[ib]
Warning: unrecognized variable - @m.xm250.msky130_fd_pr__nfet_01v8[is]
Warning: unrecognized variable - @m.xm250.msky130_fd_pr__nfet_01v8[ig]
Warning: unrecognized variable - @m.xm250.msky130_fd_pr__nfet_01v8[ib]
Warning: unrecognized variable - @m.xm251.msky130_fd_pr__nfet_01v8[is]
Warning: unrecognized variable - @m.xm251.msky130_fd_pr__nfet_01v8[ig]
Warning: unrecognized variable - @m.xm251.msky130_fd_pr__nfet_01v8[ib]
Warning: unrecognized variable - @m.xm252.msky130_fd_pr__nfet_01v8[is]
Warning: unrecognized variable - @m.xm252.msky130_fd_pr__nfet_01v8[ig]
Warning: unrecognized variable - @m.xm252.msky130_fd_pr__nfet_01v8[ib]
Warning: unrecognized variable - @m.xm253.msky130_fd_pr__nfet_01v8[is]
Warning: unrecognized variable - @m.xm253.msky130_fd_pr__nfet_01v8[ig]
Warning: unrecognized variable - @m.xm253.msky130_fd_pr__nfet_01v8[ib]
Warning: unrecognized variable - @m.xm254.msky130_fd_pr__nfet_01v8[is]
Warning: unrecognized variable - @m.xm254.msky130_fd_pr__nfet_01v8[ig]
Warning: unrecognized variable - @m.xm254.msky130_fd_pr__nfet_01v8[ib]
Warning: unrecognized variable - @m.xm255.msky130_fd_pr__nfet_01v8[is]
Warning: unrecognized variable - @m.xm255.msky130_fd_pr__nfet_01v8[ig]
Warning: unrecognized variable - @m.xm255.msky130_fd_pr__nfet_01v8[ib]
Warning: unrecognized variable - @m.xm256.msky130_fd_pr__nfet_01v8[is]
Warning: unrecognized variable - @m.xm256.msky130_fd_pr__nfet_01v8[ig]
Warning: unrecognized variable - @m.xm256.msky130_fd_pr__nfet_01v8[ib]
Warning: unrecognized variable - @m.xm257.msky130_fd_pr__nfet_01v8[is]
Warning: unrecognized variable - @m.xm257.msky130_fd_pr__nfet_01v8[ig]
Warning: unrecognized variable - @m.xm257.msky130_fd_pr__nfet_01v8[ib]
Warning: unrecognized variable - @m.xm258.msky130_fd_pr__nfet_01v8[is]
Warning: unrecognized variable - @m.xm258.msky130_fd_pr__nfet_01v8[ig]
Warning: unrecognized variable - @m.xm258.msky130_fd_pr__nfet_01v8[ib]
Warning: unrecognized variable - @m.xm259.msky130_fd_pr__nfet_01v8[is]
Warning: unrecognized variable - @m.xm259.msky130_fd_pr__nfet_01v8[ig]
Warning: unrecognized variable - @m.xm259.msky130_fd_pr__nfet_01v8[ib]
Warning: unrecognized variable - @m.xm260.msky130_fd_pr__nfet_01v8[is]
Warning: unrecognized variable - @m.xm260.msky130_fd_pr__nfet_01v8[ig]
Warning: unrecognized variable - @m.xm260.msky130_fd_pr__nfet_01v8[ib]
Warning: unrecognized variable - @m.xm261.msky130_fd_pr__nfet_01v8[is]
Warning: unrecognized variable - @m.xm261.msky130_fd_pr__nfet_01v8[ig]
Warning: unrecognized variable - @m.xm261.msky130_fd_pr__nfet_01v8[ib]
Warning: unrecognized variable - @m.xm262.msky130_fd_pr__nfet_01v8[is]
Warning: unrecognized variable - @m.xm262.msky130_fd_pr__nfet_01v8[ig]
Warning: unrecognized variable - @m.xm262.msky130_fd_pr__nfet_01v8[ib]
Warning: unrecognized variable - @m.xm263.msky130_fd_pr__nfet_01v8[is]
Warning: unrecognized variable - @m.xm263.msky130_fd_pr__nfet_01v8[ig]
Warning: unrecognized variable - @m.xm263.msky130_fd_pr__nfet_01v8[ib]
Warning: unrecognized variable - @m.xm264.msky130_fd_pr__nfet_01v8[is]
Warning: unrecognized variable - @m.xm264.msky130_fd_pr__nfet_01v8[ig]
Warning: unrecognized variable - @m.xm264.msky130_fd_pr__nfet_01v8[ib]
Warning: unrecognized variable - @m.xm265.msky130_fd_pr__nfet_01v8[is]
Warning: unrecognized variable - @m.xm265.msky130_fd_pr__nfet_01v8[ig]
Warning: unrecognized variable - @m.xm265.msky130_fd_pr__nfet_01v8[ib]
Warning: unrecognized variable - @m.xm266.msky130_fd_pr__nfet_01v8[is]
Warning: unrecognized variable - @m.xm266.msky130_fd_pr__nfet_01v8[ig]
Warning: unrecognized variable - @m.xm266.msky130_fd_pr__nfet_01v8[ib]
Warning: unrecognized variable - @m.xm267.msky130_fd_pr__nfet_01v8[is]
Warning: unrecognized variable - @m.xm267.msky130_fd_pr__nfet_01v8[ig]
Warning: unrecognized variable - @m.xm267.msky130_fd_pr__nfet_01v8[ib]
Warning: unrecognized variable - @m.xm268.msky130_fd_pr__nfet_01v8[is]
Warning: unrecognized variable - @m.xm268.msky130_fd_pr__nfet_01v8[ig]
Warning: unrecognized variable - @m.xm268.msky130_fd_pr__nfet_01v8[ib]
Warning: unrecognized variable - @m.xm269.msky130_fd_pr__nfet_01v8[is]
Warning: unrecognized variable - @m.xm269.msky130_fd_pr__nfet_01v8[ig]
Warning: unrecognized variable - @m.xm269.msky130_fd_pr__nfet_01v8[ib]
Warning: unrecognized variable - @m.xm270.msky130_fd_pr__nfet_01v8[is]
Warning: unrecognized variable - @m.xm270.msky130_fd_pr__nfet_01v8[ig]
Warning: unrecognized variable - @m.xm270.msky130_fd_pr__nfet_01v8[ib]
Warning: unrecognized variable - @m.xm271.msky130_fd_pr__nfet_01v8[is]
Warning: unrecognized variable - @m.xm271.msky130_fd_pr__nfet_01v8[ig]
Warning: unrecognized variable - @m.xm271.msky130_fd_pr__nfet_01v8[ib]
Warning: unrecognized variable - @m.xm272.msky130_fd_pr__nfet_01v8[is]
Warning: unrecognized variable - @m.xm272.msky130_fd_pr__nfet_01v8[ig]
Warning: unrecognized variable - @m.xm272.msky130_fd_pr__nfet_01v8[ib]
Warning: unrecognized variable - @m.xm273.msky130_fd_pr__nfet_01v8[is]
Warning: unrecognized variable - @m.xm273.msky130_fd_pr__nfet_01v8[ig]
Warning: unrecognized variable - @m.xm273.msky130_fd_pr__nfet_01v8[ib]
Warning: unrecognized variable - @m.xm274.msky130_fd_pr__nfet_01v8[is]
Warning: unrecognized variable - @m.xm274.msky130_fd_pr__nfet_01v8[ig]
Warning: unrecognized variable - @m.xm274.msky130_fd_pr__nfet_01v8[ib]
Warning: unrecognized variable - @m.xm275.msky130_fd_pr__nfet_01v8[is]
Warning: unrecognized variable - @m.xm275.msky130_fd_pr__nfet_01v8[ig]
Warning: unrecognized variable - @m.xm275.msky130_fd_pr__nfet_01v8[ib]
Warning: unrecognized variable - @m.xm276.msky130_fd_pr__nfet_01v8[is]
Warning: unrecognized variable - @m.xm276.msky130_fd_pr__nfet_01v8[ig]
Warning: unrecognized variable - @m.xm276.msky130_fd_pr__nfet_01v8[ib]
Warning: unrecognized variable - @m.xm277.msky130_fd_pr__nfet_01v8[is]
Warning: unrecognized variable - @m.xm277.msky130_fd_pr__nfet_01v8[ig]
Warning: unrecognized variable - @m.xm277.msky130_fd_pr__nfet_01v8[ib]
Warning: unrecognized variable - @m.xm278.msky130_fd_pr__nfet_01v8[is]
Warning: unrecognized variable - @m.xm278.msky130_fd_pr__nfet_01v8[ig]
Warning: unrecognized variable - @m.xm278.msky130_fd_pr__nfet_01v8[ib]
Warning: unrecognized variable - @m.xm279.msky130_fd_pr__nfet_01v8[is]
Warning: unrecognized variable - @m.xm279.msky130_fd_pr__nfet_01v8[ig]
Warning: unrecognized variable - @m.xm279.msky130_fd_pr__nfet_01v8[ib]
Warning: unrecognized variable - @m.xm280.msky130_fd_pr__nfet_01v8[is]
Warning: unrecognized variable - @m.xm280.msky130_fd_pr__nfet_01v8[ig]
Warning: unrecognized variable - @m.xm280.msky130_fd_pr__nfet_01v8[ib]
Warning: unrecognized variable - @m.xm281.msky130_fd_pr__nfet_01v8[is]
Warning: unrecognized variable - @m.xm281.msky130_fd_pr__nfet_01v8[ig]
Warning: unrecognized variable - @m.xm281.msky130_fd_pr__nfet_01v8[ib]
Warning: unrecognized variable - @m.xm282.msky130_fd_pr__nfet_01v8[is]
Warning: unrecognized variable - @m.xm282.msky130_fd_pr__nfet_01v8[ig]
Warning: unrecognized variable - @m.xm282.msky130_fd_pr__nfet_01v8[ib]
Warning: unrecognized variable - @m.xm283.msky130_fd_pr__nfet_01v8[is]
Warning: unrecognized variable - @m.xm283.msky130_fd_pr__nfet_01v8[ig]
Warning: unrecognized variable - @m.xm283.msky130_fd_pr__nfet_01v8[ib]
Warning: unrecognized variable - @m.xm284.msky130_fd_pr__nfet_01v8[is]
Warning: unrecognized variable - @m.xm284.msky130_fd_pr__nfet_01v8[ig]
Warning: unrecognized variable - @m.xm284.msky130_fd_pr__nfet_01v8[ib]
Warning: unrecognized variable - @m.xm285.msky130_fd_pr__nfet_01v8[is]
Warning: unrecognized variable - @m.xm285.msky130_fd_pr__nfet_01v8[ig]
Warning: unrecognized variable - @m.xm285.msky130_fd_pr__nfet_01v8[ib]
Warning: unrecognized variable - @m.xm286.msky130_fd_pr__nfet_01v8[is]
Warning: unrecognized variable - @m.xm286.msky130_fd_pr__nfet_01v8[ig]
Warning: unrecognized variable - @m.xm286.msky130_fd_pr__nfet_01v8[ib]
Warning: unrecognized variable - @m.xm287.msky130_fd_pr__nfet_01v8[is]
Warning: unrecognized variable - @m.xm287.msky130_fd_pr__nfet_01v8[ig]
Warning: unrecognized variable - @m.xm287.msky130_fd_pr__nfet_01v8[ib]
Warning: unrecognized variable - @m.xm288.msky130_fd_pr__nfet_01v8[is]
Warning: unrecognized variable - @m.xm288.msky130_fd_pr__nfet_01v8[ig]
Warning: unrecognized variable - @m.xm288.msky130_fd_pr__nfet_01v8[ib]
Warning: unrecognized variable - @m.xm289.msky130_fd_pr__nfet_01v8[is]
Warning: unrecognized variable - @m.xm289.msky130_fd_pr__nfet_01v8[ig]
Warning: unrecognized variable - @m.xm289.msky130_fd_pr__nfet_01v8[ib]
Warning: unrecognized variable - @m.xm290.msky130_fd_pr__nfet_01v8[is]
Warning: unrecognized variable - @m.xm290.msky130_fd_pr__nfet_01v8[ig]
Warning: unrecognized variable - @m.xm290.msky130_fd_pr__nfet_01v8[ib]
Warning: unrecognized variable - @m.xm291.msky130_fd_pr__nfet_01v8[is]
Warning: unrecognized variable - @m.xm291.msky130_fd_pr__nfet_01v8[ig]
Warning: unrecognized variable - @m.xm291.msky130_fd_pr__nfet_01v8[ib]
Warning: unrecognized variable - @m.xm292.msky130_fd_pr__nfet_01v8[is]
Warning: unrecognized variable - @m.xm292.msky130_fd_pr__nfet_01v8[ig]
Warning: unrecognized variable - @m.xm292.msky130_fd_pr__nfet_01v8[ib]
Warning: unrecognized variable - @m.xm293.msky130_fd_pr__nfet_01v8[is]
Warning: unrecognized variable - @m.xm293.msky130_fd_pr__nfet_01v8[ig]
Warning: unrecognized variable - @m.xm293.msky130_fd_pr__nfet_01v8[ib]
Warning: unrecognized variable - @m.xm294.msky130_fd_pr__nfet_01v8[is]
Warning: unrecognized variable - @m.xm294.msky130_fd_pr__nfet_01v8[ig]
Warning: unrecognized variable - @m.xm294.msky130_fd_pr__nfet_01v8[ib]
Warning: unrecognized variable - @m.xm295.msky130_fd_pr__nfet_01v8[is]
Warning: unrecognized variable - @m.xm295.msky130_fd_pr__nfet_01v8[ig]
Warning: unrecognized variable - @m.xm295.msky130_fd_pr__nfet_01v8[ib]
Warning: unrecognized variable - @m.xm296.msky130_fd_pr__nfet_01v8[is]
Warning: unrecognized variable - @m.xm296.msky130_fd_pr__nfet_01v8[ig]
Warning: unrecognized variable - @m.xm296.msky130_fd_pr__nfet_01v8[ib]
Warning: unrecognized variable - @m.xm297.msky130_fd_pr__nfet_01v8[is]
Warning: unrecognized variable - @m.xm297.msky130_fd_pr__nfet_01v8[ig]
Warning: unrecognized variable - @m.xm297.msky130_fd_pr__nfet_01v8[ib]
Warning: unrecognized variable - @m.xm298.msky130_fd_pr__nfet_01v8[is]
Warning: unrecognized variable - @m.xm298.msky130_fd_pr__nfet_01v8[ig]
Warning: unrecognized variable - @m.xm298.msky130_fd_pr__nfet_01v8[ib]
Warning: unrecognized variable - @m.xm299.msky130_fd_pr__nfet_01v8[is]
Warning: unrecognized variable - @m.xm299.msky130_fd_pr__nfet_01v8[ig]
Warning: unrecognized variable - @m.xm299.msky130_fd_pr__nfet_01v8[ib]
Warning: unrecognized variable - @m.xm300.msky130_fd_pr__nfet_01v8[is]
Warning: unrecognized variable - @m.xm300.msky130_fd_pr__nfet_01v8[ig]
Warning: unrecognized variable - @m.xm300.msky130_fd_pr__nfet_01v8[ib]

No. of Data Rows : 1

Total analysis time (seconds) = 0.036

Total elapsed time (seconds) = 58.408 

Total DRAM available = 3721.961 MB.
DRAM currently available = 1749.875 MB.
Maximum ngspice program size =  749.180 MB.
Current ngspice program size =  658.445 MB.

Shared ngspice pages =    4.262 MB.
Text (code) pages =    6.168 MB.
Stack = 0 bytes.
Library pages =  662.246 MB.

